<?xml version="1.0" encoding="UTF-8"?>

<!-- generated on 2026-05-07 12:31:19 by Eclipse SUMO netconvert Version 1.12.0
<configuration xmlns:xsi="http://www.w3.org/2001/XMLSchema-instance" xsi:noNamespaceSchemaLocation="http://sumo.dlr.de/xsd/netconvertConfiguration.xsd">

    <input>
        <osm-files value="/app/data/map.osm"/>
    </input>

    <output>
        <output-file value="/app/data/casa.net.xml"/>
    </output>

    <projection>
        <proj.utm value="true"/>
    </projection>

    <processing>
        <geometry.remove value="true"/>
    </processing>

    <tls_building>
        <tls.guess-signals value="true"/>
    </tls_building>

    <junctions>
        <junctions.join value="true"/>
    </junctions>

    <report>
        <aggregate-warnings value="5"/>
    </report>

</configuration>
-->

<net version="1.9" junctionCornerDetail="5" limitTurnSpeed="5.50" xmlns:xsi="http://www.w3.org/2001/XMLSchema-instance" xsi:noNamespaceSchemaLocation="http://sumo.dlr.de/xsd/net_file.xsd">

    <location netOffset="-627525.05,-3714222.29" convBoundary="0.00,0.00,4153.51,5358.60" origBoundary="-7.630962,33.559694,-7.555821,33.608210" projParameter="+proj=utm +zone=29 +ellps=WGS84 +datum=WGS84 +units=m +no_defs"/>

    <type id="highway.bridleway" priority="1" numLanes="1" speed="2.78" allow="pedestrian" oneway="1" width="2.00"/>
    <type id="highway.bus_guideway" priority="1" numLanes="1" speed="27.78" allow="bus" oneway="1"/>
    <type id="highway.cycleway" priority="1" numLanes="1" speed="8.33" allow="bicycle" oneway="0" width="1.00"/>
    <type id="highway.footway" priority="1" numLanes="1" speed="2.78" allow="pedestrian" oneway="1" width="2.00"/>
    <type id="highway.ford" priority="1" numLanes="1" speed="2.78" allow="army" oneway="0"/>
    <type id="highway.living_street" priority="2" numLanes="1" speed="2.78" disallow="tram rail_urban rail rail_electric rail_fast ship" oneway="0"/>
    <type id="highway.motorway" priority="14" numLanes="2" speed="39.44" allow="private emergency authority army vip passenger hov taxi bus coach delivery truck trailer motorcycle evehicle custom1 custom2" oneway="1"/>
    <type id="highway.motorway_link" priority="9" numLanes="1" speed="22.22" allow="private emergency authority army vip passenger hov taxi bus coach delivery truck trailer motorcycle evehicle custom1 custom2" oneway="1"/>
    <type id="highway.path" priority="1" numLanes="1" speed="2.78" allow="pedestrian bicycle" oneway="0" width="2.00"/>
    <type id="highway.pedestrian" priority="1" numLanes="1" speed="2.78" allow="pedestrian" oneway="1" width="2.00"/>
    <type id="highway.primary" priority="12" numLanes="2" speed="27.78" disallow="tram rail_urban rail rail_electric rail_fast ship" oneway="0"/>
    <type id="highway.primary_link" priority="7" numLanes="1" speed="22.22" disallow="tram rail_urban rail rail_electric rail_fast ship" oneway="0"/>
    <type id="highway.raceway" priority="15" numLanes="2" speed="83.33" allow="vip" oneway="0"/>
    <type id="highway.residential" priority="3" numLanes="1" speed="13.89" disallow="tram rail_urban rail rail_electric rail_fast ship" oneway="0"/>
    <type id="highway.secondary" priority="11" numLanes="1" speed="27.78" disallow="tram rail_urban rail rail_electric rail_fast ship" oneway="0"/>
    <type id="highway.secondary_link" priority="6" numLanes="1" speed="22.22" disallow="tram rail_urban rail rail_electric rail_fast ship" oneway="0"/>
    <type id="highway.service" priority="1" numLanes="1" speed="5.56" allow="pedestrian delivery bicycle" oneway="0"/>
    <type id="highway.stairs" priority="1" numLanes="1" speed="1.39" allow="pedestrian" oneway="1" width="2.00"/>
    <type id="highway.step" priority="1" numLanes="1" speed="1.39" allow="pedestrian" oneway="1" width="2.00"/>
    <type id="highway.steps" priority="1" numLanes="1" speed="1.39" allow="pedestrian" oneway="1" width="2.00"/>
    <type id="highway.tertiary" priority="10" numLanes="1" speed="22.22" disallow="tram rail_urban rail rail_electric rail_fast ship" oneway="0"/>
    <type id="highway.tertiary_link" priority="5" numLanes="1" speed="22.22" disallow="tram rail_urban rail rail_electric rail_fast ship" oneway="0"/>
    <type id="highway.track" priority="1" numLanes="1" speed="5.56" allow="pedestrian motorcycle moped bicycle" oneway="0"/>
    <type id="highway.trunk" priority="13" numLanes="2" speed="27.78" disallow="pedestrian bicycle tram rail_urban rail rail_electric rail_fast ship" oneway="0"/>
    <type id="highway.trunk_link" priority="8" numLanes="1" speed="22.22" disallow="pedestrian bicycle tram rail_urban rail rail_electric rail_fast ship" oneway="0"/>
    <type id="highway.unclassified" priority="4" numLanes="1" speed="13.89" disallow="tram rail_urban rail rail_electric rail_fast ship" oneway="0"/>
    <type id="highway.unsurfaced" priority="1" numLanes="1" speed="8.33" disallow="tram rail_urban rail rail_electric rail_fast ship" oneway="0"/>
    <type id="railway.highspeed" priority="21" numLanes="1" speed="69.44" allow="rail_fast" oneway="1"/>
    <type id="railway.light_rail" priority="19" numLanes="1" speed="27.78" allow="rail_urban" oneway="1"/>
    <type id="railway.preserved" priority="16" numLanes="1" speed="27.78" allow="rail" oneway="1"/>
    <type id="railway.rail" priority="20" numLanes="1" speed="44.44" allow="rail" oneway="1"/>
    <type id="railway.subway" priority="18" numLanes="1" speed="27.78" allow="rail_urban" oneway="1"/>
    <type id="railway.tram" priority="17" numLanes="1" speed="13.89" allow="tram" oneway="1"/>

    <edge id=":10127117821_0" function="internal">
        <lane id=":10127117821_0_0" index="0" allow="tram" speed="13.89" length="1.62" shape="1565.16,3762.58 1564.69,3761.03"/>
    </edge>
    <edge id=":10127117821_1" function="internal">
        <lane id=":10127117821_1_0" index="0" allow="tram" speed="13.89" length="0.38" shape="1563.58,3764.76 1563.21,3764.84"/>
    </edge>
    <edge id=":10127117822_0" function="internal">
        <lane id=":10127117822_0_0" index="0" allow="tram" speed="5.86" length="2.75" shape="1562.74,3761.16 1565.20,3762.39"/>
    </edge>
    <edge id=":10127117822_1" function="internal">
        <lane id=":10127117822_1_0" index="0" allow="tram" speed="13.89" length="1.27" shape="1562.74,3761.16 1563.98,3760.88"/>
    </edge>
    <edge id=":10127117822_2" function="internal">
        <lane id=":10127117822_2_0" index="0" allow="tram" speed="13.89" length="12.83" shape="1565.74,3775.21 1565.20,3762.39"/>
    </edge>
    <edge id=":10127117822_3" function="internal">
        <lane id=":10127117822_3_0" index="0" allow="tram" speed="10.59" length="14.44" shape="1565.74,3775.21 1563.98,3760.88"/>
    </edge>
    <edge id=":10127117880_0" function="internal">
        <lane id=":10127117880_0_0" index="0" allow="tram" speed="13.89" length="2.82" shape="1394.67,4225.19 1397.49,4225.14"/>
    </edge>
    <edge id=":10127117880_1" function="internal">
        <lane id=":10127117880_1_0" index="0" allow="tram" speed="13.89" length="2.79" shape="1394.72,4225.46 1395.54,4225.32 1396.10,4225.23 1396.66,4225.18 1397.49,4225.14"/>
    </edge>
    <edge id=":10127117898_0" function="internal">
        <lane id=":10127117898_0_0" index="0" allow="tram" speed="13.89" length="1.23" shape="1561.73,3762.15 1562.20,3763.29"/>
    </edge>
    <edge id=":10127117898_1" function="internal">
        <lane id=":10127117898_1_0" index="0" allow="tram" speed="5.02" length="3.13" shape="1561.73,3762.15 1563.39,3764.81"/>
    </edge>
    <edge id=":10127117898_2" function="internal">
        <lane id=":10127117898_2_0" index="0" allow="tram" speed="4.43" length="1.77" shape="1562.33,3765.05 1562.20,3763.29"/>
    </edge>
    <edge id=":10127117898_3" function="internal">
        <lane id=":10127117898_3_0" index="0" allow="tram" speed="13.89" length="1.09" shape="1562.33,3765.05 1563.39,3764.81"/>
    </edge>
    <edge id=":10127117899_0" function="internal">
        <lane id=":10127117899_0_0" index="0" allow="tram" speed="13.89" length="2.43" shape="1563.78,3760.92 1566.15,3760.38"/>
    </edge>
    <edge id=":10127117899_1" function="internal">
        <lane id=":10127117899_1_0" index="0" allow="tram" speed="13.89" length="12.19" shape="1562.22,3763.09 1560.83,3775.20"/>
    </edge>
    <edge id=":10244242235_0" function="internal">
        <lane id=":10244242235_0_0" index="0" allow="pedestrian delivery bicycle" speed="4.90" length="5.18" shape="2081.49,3701.76 2082.64,3702.63 2083.76,3702.88 2084.83,3702.49 2085.86,3701.47"/>
    </edge>
    <edge id=":10244242235_1" function="internal">
        <lane id=":10244242235_1_0" index="0" disallow="tram rail_urban rail rail_electric rail_fast ship" speed="13.89" length="6.24" shape="2082.10,3706.44 2085.86,3701.47"/>
    </edge>
    <edge id=":10244242238_0" function="internal">
        <lane id=":10244242238_0_0" index="0" allow="pedestrian delivery bicycle" speed="5.08" length="5.22" shape="2052.29,3690.53 2052.58,3691.86 2053.27,3692.77 2054.37,3693.26 2055.88,3693.32"/>
    </edge>
    <edge id=":10244242238_1" function="internal">
        <lane id=":10244242238_1_0" index="0" disallow="tram rail_urban rail rail_electric rail_fast ship" speed="27.78" length="6.19" shape="2052.29,3690.53 2052.59,3696.77"/>
        <lane id=":10244242238_1_1" index="1" disallow="tram rail_urban rail rail_electric rail_fast ship" speed="27.78" length="6.19" shape="2049.10,3690.70 2049.40,3696.89"/>
        <lane id=":10244242238_1_2" index="2" disallow="tram rail_urban rail rail_electric rail_fast ship" speed="27.78" length="6.19" shape="2045.90,3690.87 2046.20,3697.01"/>
    </edge>
    <edge id=":10992011541_0" function="internal">
        <lane id=":10992011541_0_0" index="0" disallow="tram rail_urban rail rail_electric rail_fast ship" speed="6.61" length="8.68" shape="1508.88,4074.52 1511.18,4075.23 1513.19,4075.11 1514.91,4074.15 1516.33,4072.36"/>
    </edge>
    <edge id=":10992011541_1" function="internal">
        <lane id=":10992011541_1_0" index="0" disallow="tram rail_urban rail rail_electric rail_fast ship" speed="22.22" length="10.20" shape="1511.24,4081.20 1516.33,4072.36"/>
    </edge>
    <edge id=":1129492491_0" function="internal">
        <lane id=":1129492491_0_0" index="0" disallow="tram rail_urban rail rail_electric rail_fast ship" speed="13.89" length="13.77" shape="1926.88,3601.64 1913.12,3601.88"/>
    </edge>
    <edge id=":1129492491_1" function="internal">
        <lane id=":1129492491_1_0" index="0" disallow="tram rail_urban rail rail_electric rail_fast ship" speed="3.65" length="4.67" shape="1926.88,3601.64 1925.66,3600.87 1925.24,3600.09 1925.61,3599.27 1926.79,3598.44"/>
    </edge>
    <edge id=":1129492491_2" function="internal">
        <lane id=":1129492491_2_0" index="0" disallow="tram rail_urban rail rail_electric rail_fast ship" speed="6.74" length="9.00" shape="1920.98,3592.84 1921.63,3595.35 1922.81,3597.11 1924.53,3598.14 1926.79,3598.44"/>
    </edge>
    <edge id=":1129492491_3" function="internal">
        <lane id=":1129492491_3_0" index="0" disallow="tram rail_urban rail rail_electric rail_fast ship" speed="6.93" length="11.36" shape="1917.81,3593.26 1917.94,3597.02 1917.20,3599.70 1915.59,3601.32 1913.12,3601.88"/>
    </edge>
    <edge id=":1129492491_4" function="internal">
        <lane id=":1129492491_4_0" index="0" disallow="tram rail_urban rail rail_electric rail_fast ship" speed="13.89" length="13.70" shape="1913.09,3598.68 1926.79,3598.44"/>
    </edge>
    <edge id=":1129492491_5" function="internal">
        <lane id=":1129492491_5_0" index="0" disallow="tram rail_urban rail rail_electric rail_fast ship" speed="3.65" length="4.67" shape="1913.09,3598.68 1914.30,3599.47 1914.71,3600.27 1914.31,3601.07 1913.12,3601.88"/>
    </edge>
    <edge id=":1129495624_0" function="internal">
        <lane id=":1129495624_0_0" index="0" disallow="tram rail_urban rail rail_electric rail_fast ship" speed="13.89" length="14.82" shape="957.73,3627.97 943.29,3624.64"/>
    </edge>
    <edge id=":1129495624_1" function="internal">
        <lane id=":1129495624_1_0" index="0" disallow="tram rail_urban rail rail_electric rail_fast ship" speed="7.10" length="11.94" shape="957.73,3627.97 955.28,3626.86 953.94,3624.86 953.73,3621.95 954.63,3618.14"/>
    </edge>
    <edge id=":1129495624_2" function="internal">
        <lane id=":1129495624_2_0" index="0" disallow="tram rail_urban rail rail_electric rail_fast ship" speed="3.65" length="4.67" shape="957.73,3627.97 956.73,3626.93 956.51,3626.06 957.07,3625.37 958.41,3624.84"/>
    </edge>
    <edge id=":1129495624_3" function="internal">
        <lane id=":1129495624_3_0" index="0" disallow="tram rail_urban rail rail_electric rail_fast ship" speed="6.97" length="9.79" shape="944.05,3621.53 946.61,3621.77 948.72,3621.10 950.38,3619.55 951.60,3617.10"/>
    </edge>
    <edge id=":1129495624_4" function="internal">
        <lane id=":1129495624_4_0" index="0" disallow="tram rail_urban rail rail_electric rail_fast ship" speed="13.89" length="14.73" shape="944.05,3621.53 958.41,3624.84"/>
    </edge>
    <edge id=":1129495624_5" function="internal">
        <lane id=":1129495624_5_0" index="0" disallow="tram rail_urban rail rail_electric rail_fast ship" speed="3.65" length="4.67" shape="944.05,3621.53 945.03,3622.60 945.23,3623.47 944.65,3624.15 943.29,3624.64"/>
    </edge>
    <edge id=":1129495624_6" function="internal">
        <lane id=":1129495624_6_0" index="0" disallow="tram rail_urban rail rail_electric rail_fast ship" speed="6.51" length="9.02" shape="947.40,3631.40 947.64,3628.94 947.03,3627.00 945.59,3625.56 943.29,3624.64"/>
    </edge>
    <edge id=":1129495624_7" function="internal">
        <lane id=":1129495624_7_0" index="0" disallow="tram rail_urban rail rail_electric rail_fast ship" speed="13.89" length="14.77" shape="947.40,3631.40 948.46,3627.10 949.26,3624.18 950.17,3621.29 951.60,3617.10"/>
        <lane id=":1129495624_7_1" index="1" disallow="tram rail_urban rail rail_electric rail_fast ship" speed="13.89" length="14.77" shape="950.51,3632.16 951.55,3627.94 952.33,3625.08 953.23,3622.24 954.63,3618.14"/>
    </edge>
    <edge id=":1129495624_9" function="internal">
        <lane id=":1129495624_9_0" index="0" disallow="tram rail_urban rail rail_electric rail_fast ship" speed="7.49" length="12.08" shape="950.51,3632.16 951.79,3628.48 953.53,3626.04 955.74,3624.82 958.41,3624.84"/>
    </edge>
    <edge id=":1129495628_0" function="internal">
        <lane id=":1129495628_0_0" index="0" disallow="tram rail_urban rail rail_electric rail_fast ship" speed="7.15" length="11.89" shape="971.14,3599.01 968.66,3598.06 967.21,3596.14 966.76,3593.24 967.34,3589.38"/>
    </edge>
    <edge id=":1129495628_1" function="internal">
        <lane id=":1129495628_1_0" index="0" disallow="tram rail_urban rail rail_electric rail_fast ship" speed="3.65" length="4.67" shape="971.14,3599.01 970.08,3598.03 969.80,3597.18 970.32,3596.45 971.63,3595.85"/>
    </edge>
    <edge id=":1129495628_2" function="internal">
        <lane id=":1129495628_2_0" index="0" disallow="tram rail_urban rail rail_electric rail_fast ship" speed="13.89" length="13.51" shape="959.34,3600.52 961.35,3597.26 962.51,3594.88 963.30,3592.34 964.23,3588.61"/>
        <lane id=":1129495628_2_1" index="1" disallow="tram rail_urban rail rail_electric rail_fast ship" speed="13.89" length="13.51" shape="962.03,3602.25 964.21,3598.72 965.47,3596.16 966.33,3593.42 967.34,3589.38"/>
    </edge>
    <edge id=":1129495628_4" function="internal">
        <lane id=":1129495628_4_0" index="0" disallow="tram rail_urban rail rail_electric rail_fast ship" speed="8.91" length="12.18" shape="962.03,3602.25 964.36,3599.16 966.74,3597.06 969.16,3595.96 971.63,3595.85"/>
    </edge>
    <edge id=":1129495631_0" function="internal">
        <lane id=":1129495631_0_0" index="0" disallow="tram rail_urban rail rail_electric rail_fast ship" speed="6.70" length="9.26" shape="920.64,3619.70 918.07,3619.52 916.03,3620.16 914.54,3621.61 913.57,3623.88"/>
    </edge>
    <edge id=":1129495631_1" function="internal">
        <lane id=":1129495631_1_0" index="0" disallow="tram rail_urban rail rail_electric rail_fast ship" speed="3.65" length="4.67" shape="920.64,3619.70 919.63,3618.68 919.39,3617.81 919.95,3617.11 921.28,3616.57"/>
    </edge>
    <edge id=":1129495631_2" function="internal">
        <lane id=":1129495631_2_0" index="0" disallow="tram rail_urban rail rail_electric rail_fast ship" speed="6.43" length="9.03" shape="917.08,3609.93 916.84,3612.41 917.46,3614.34 918.94,3615.73 921.28,3616.57"/>
    </edge>
    <edge id=":1129495631_3" function="internal">
        <lane id=":1129495631_3_0" index="0" disallow="tram rail_urban rail rail_electric rail_fast ship" speed="13.89" length="14.36" shape="917.08,3609.93 913.57,3623.88"/>
        <lane id=":1129495631_3_1" index="1" disallow="tram rail_urban rail rail_electric rail_fast ship" speed="13.89" length="14.36" shape="913.97,3609.17 910.48,3623.07"/>
    </edge>
    <edge id=":1129495634_0" function="internal">
        <lane id=":1129495634_0_0" index="0" disallow="tram rail_urban rail rail_electric rail_fast ship" speed="13.89" length="14.40" shape="1000.44,3628.15 997.61,3642.26"/>
    </edge>
    <edge id=":1129495634_1" function="internal">
        <lane id=":1129495634_1_0" index="0" disallow="tram rail_urban rail rail_electric rail_fast ship" speed="7.98" length="4.07" shape="1000.44,3628.15 999.14,3631.84 999.03,3631.95"/>
    </edge>
    <edge id=":1129495634_2" function="internal">
        <lane id=":1129495634_2_0" index="0" disallow="tram rail_urban rail rail_electric rail_fast ship" speed="3.65" length="1.44" shape="1000.44,3628.15 999.42,3629.17"/>
    </edge>
    <edge id=":1129495634_9" function="internal">
        <lane id=":1129495634_9_0" index="0" disallow="tram rail_urban rail rail_electric rail_fast ship" speed="7.98" length="10.17" shape="999.03,3631.95 996.96,3634.20 993.93,3635.24 990.02,3634.97"/>
    </edge>
    <edge id=":1129495634_10" function="internal">
        <lane id=":1129495634_10_0" index="0" disallow="tram rail_urban rail rail_electric rail_fast ship" speed="3.65" length="3.23" shape="999.42,3629.17 998.56,3629.40 997.85,3628.85 997.31,3627.52"/>
    </edge>
    <edge id=":1129495634_3" function="internal">
        <lane id=":1129495634_3_0" index="0" disallow="tram rail_urban rail rail_electric rail_fast ship" speed="6.48" length="9.03" shape="990.70,3631.84 993.17,3632.02 995.10,3631.35 996.48,3629.85 997.31,3627.52"/>
    </edge>
    <edge id=":1129495634_4" function="internal">
        <lane id=":1129495634_4_0" index="0" disallow="tram rail_urban rail rail_electric rail_fast ship" speed="8.05" length="14.21" shape="990.70,3631.84 994.37,3633.19 996.74,3635.38 997.82,3638.40 997.61,3642.26"/>
    </edge>
    <edge id=":1129495634_5" function="internal">
        <lane id=":1129495634_5_0" index="0" disallow="tram rail_urban rail rail_electric rail_fast ship" speed="3.65" length="4.67" shape="990.70,3631.84 991.70,3632.87 991.93,3633.74 991.37,3634.44 990.02,3634.97"/>
    </edge>
    <edge id=":1129495634_6" function="internal">
        <lane id=":1129495634_6_0" index="0" disallow="tram rail_urban rail rail_electric rail_fast ship" speed="6.57" length="9.11" shape="994.47,3641.63 994.60,3639.17 993.91,3637.23 992.38,3635.83 990.02,3634.97"/>
    </edge>
    <edge id=":1129495634_7" function="internal">
        <lane id=":1129495634_7_0" index="0" disallow="tram rail_urban rail rail_electric rail_fast ship" speed="13.89" length="14.40" shape="994.47,3641.63 997.31,3627.52"/>
    </edge>
    <edge id=":1129495634_8" function="internal">
        <lane id=":1129495634_8_0" index="0" disallow="tram rail_urban rail rail_electric rail_fast ship" speed="3.65" length="1.44" shape="994.47,3641.63 995.49,3640.61"/>
    </edge>
    <edge id=":1129495634_11" function="internal">
        <lane id=":1129495634_11_0" index="0" disallow="tram rail_urban rail rail_electric rail_fast ship" speed="3.65" length="3.23" shape="995.49,3640.61 996.35,3640.38 997.06,3640.93 997.61,3642.26"/>
    </edge>
    <edge id=":11420470432_0" function="internal">
        <lane id=":11420470432_0_0" index="0" allow="pedestrian delivery bicycle" speed="3.65" length="4.67" shape="736.39,4459.21 736.20,4460.64 735.65,4461.35 734.76,4461.34 733.51,4460.61"/>
    </edge>
    <edge id=":11477725239_0" function="internal">
        <lane id=":11477725239_0_0" index="0" allow="pedestrian delivery bicycle" speed="3.65" length="4.67" shape="1576.35,4336.14 1575.62,4334.90 1575.60,4334.00 1576.31,4333.45 1577.73,4333.25"/>
    </edge>
    <edge id=":11477725240_0" function="internal">
        <lane id=":11477725240_0_0" index="0" allow="pedestrian delivery bicycle" speed="3.65" length="4.67" shape="1549.57,4355.52 1548.96,4354.22 1549.03,4353.32 1549.78,4352.85 1551.23,4352.78"/>
    </edge>
    <edge id=":11477725246_0" function="internal">
        <lane id=":11477725246_0_0" index="0" allow="pedestrian delivery bicycle" speed="5.56" length="7.36" shape="1614.94,4356.14 1613.54,4354.49 1612.41,4353.49 1611.11,4352.73 1609.14,4351.79"/>
    </edge>
    <edge id=":11477725246_1" function="internal">
        <lane id=":11477725246_1_0" index="0" allow="pedestrian delivery bicycle" speed="5.56" length="9.14" shape="1614.94,4356.14 1613.81,4354.22 1613.39,4352.15 1613.68,4349.94 1614.69,4347.57"/>
    </edge>
    <edge id=":11477725246_2" function="internal">
        <lane id=":11477725246_2_0" index="0" allow="pedestrian delivery bicycle" speed="3.65" length="4.67" shape="1614.94,4356.14 1614.81,4354.70 1615.18,4353.89 1616.06,4353.70 1617.43,4354.13"/>
    </edge>
    <edge id=":11477725246_3" function="internal">
        <lane id=":11477725246_3_0" index="0" allow="pedestrian delivery bicycle" speed="5.56" length="5.33" shape="1617.48,4349.13 1616.85,4350.57 1616.64,4351.88 1616.83,4353.07 1617.43,4354.13"/>
    </edge>
    <edge id=":11477725246_4" function="internal">
        <lane id=":11477725246_4_0" index="0" allow="pedestrian delivery bicycle" speed="5.56" length="9.86" shape="1617.48,4349.13 1615.87,4351.27 1613.94,4352.42 1611.69,4352.60 1609.14,4351.79"/>
    </edge>
    <edge id=":11477725246_5" function="internal">
        <lane id=":11477725246_5_0" index="0" allow="pedestrian delivery bicycle" speed="3.65" length="4.67" shape="1617.48,4349.13 1616.20,4349.79 1615.31,4349.75 1614.80,4349.01 1614.69,4347.57"/>
    </edge>
    <edge id=":11477725246_6" function="internal">
        <lane id=":11477725246_6_0" index="0" allow="pedestrian delivery bicycle" speed="5.11" length="4.93" shape="1610.52,4348.90 1611.79,4349.30 1612.91,4349.22 1613.88,4348.64 1614.69,4347.57"/>
    </edge>
    <edge id=":11477725246_7" function="internal">
        <lane id=":11477725246_7_0" index="0" allow="pedestrian delivery bicycle" speed="5.56" length="8.80" shape="1610.52,4348.90 1612.87,4350.03 1614.42,4350.95 1615.76,4352.15 1617.43,4354.13"/>
    </edge>
    <edge id=":11477725246_8" function="internal">
        <lane id=":11477725246_8_0" index="0" allow="pedestrian delivery bicycle" speed="3.65" length="4.67" shape="1610.52,4348.90 1611.25,4350.14 1611.27,4351.04 1610.57,4351.59 1609.14,4351.79"/>
    </edge>
    <edge id=":11477725250_0" function="internal">
        <lane id=":11477725250_0_0" index="0" allow="pedestrian delivery bicycle" speed="3.65" length="4.67" shape="1349.67,4194.56 1349.31,4195.96 1348.69,4196.61 1347.81,4196.49 1346.65,4195.63"/>
    </edge>
    <edge id=":11490997606_0" function="internal">
        <lane id=":11490997606_0_0" index="0" allow="pedestrian delivery bicycle" speed="4.94" length="5.13" shape="1267.72,4466.56 1266.42,4465.99 1265.28,4466.00 1264.31,4466.60 1263.51,4467.78"/>
    </edge>
    <edge id=":11490997606_1" function="internal">
        <lane id=":11490997606_1_0" index="0" allow="pedestrian delivery bicycle" speed="5.56" length="10.22" shape="1267.72,4466.56 1265.47,4464.73 1264.22,4462.68 1263.98,4460.40 1264.75,4457.89"/>
    </edge>
    <edge id=":11490997606_2" function="internal">
        <lane id=":11490997606_2_0" index="0" allow="pedestrian delivery bicycle" speed="3.65" length="4.67" shape="1267.72,4466.56 1267.13,4465.25 1267.21,4464.35 1267.97,4463.89 1269.41,4463.84"/>
    </edge>
    <edge id=":11490997606_3" function="internal">
        <lane id=":11490997606_3_0" index="0" allow="pedestrian delivery bicycle" speed="5.41" length="5.44" shape="1267.63,4459.29 1267.26,4460.57 1267.43,4461.75 1268.15,4462.84 1269.41,4463.84"/>
    </edge>
    <edge id=":11490997606_4" function="internal">
        <lane id=":11490997606_4_0" index="0" allow="pedestrian delivery bicycle" speed="5.56" length="9.43" shape="1267.63,4459.29 1263.51,4467.78"/>
    </edge>
    <edge id=":11490997606_5" function="internal">
        <lane id=":11490997606_5_0" index="0" allow="pedestrian delivery bicycle" speed="3.65" length="4.67" shape="1267.63,4459.29 1266.39,4460.02 1265.49,4460.03 1264.95,4459.32 1264.75,4457.89"/>
    </edge>
    <edge id=":11490997606_6" function="internal">
        <lane id=":11490997606_6_0" index="0" allow="pedestrian delivery bicycle" speed="5.56" length="9.43" shape="1260.63,4466.38 1264.75,4457.89"/>
    </edge>
    <edge id=":11490997606_7" function="internal">
        <lane id=":11490997606_7_0" index="0" allow="pedestrian delivery bicycle" speed="5.56" length="10.69" shape="1260.63,4466.38 1262.30,4463.92 1264.32,4462.67 1266.69,4462.65 1269.41,4463.84"/>
    </edge>
    <edge id=":11490997606_8" function="internal">
        <lane id=":11490997606_8_0" index="0" allow="pedestrian delivery bicycle" speed="3.65" length="4.67" shape="1260.63,4466.38 1261.88,4465.65 1262.77,4465.64 1263.32,4466.35 1263.51,4467.78"/>
    </edge>
    <edge id=":11490997611_0" function="internal">
        <lane id=":11490997611_0_0" index="0" allow="pedestrian delivery bicycle" speed="4.11" length="1.42" shape="1275.22,4449.51 1274.90,4449.34 1274.56,4449.25 1274.22,4449.25 1273.86,4449.32"/>
    </edge>
    <edge id=":11490997611_1" function="internal">
        <lane id=":11490997611_1_0" index="0" allow="pedestrian delivery bicycle" speed="5.56" length="4.25" shape="1272.90,4446.27 1273.97,4446.05 1275.01,4446.07 1276.01,4446.33 1276.98,4446.83"/>
    </edge>
    <edge id=":11490997615_0" function="internal">
        <lane id=":11490997615_0_0" index="0" allow="pedestrian delivery bicycle" speed="3.65" length="4.67" shape="1233.11,4525.38 1231.82,4526.04 1230.93,4526.00 1230.42,4525.26 1230.31,4523.83"/>
    </edge>
    <edge id=":11502109678_0" function="internal">
        <lane id=":11502109678_0_0" index="0" allow="pedestrian delivery bicycle" speed="5.02" length="5.03" shape="1429.92,3853.09 1429.35,3851.83 1428.52,3851.06 1427.43,3850.78 1426.06,3851.00"/>
    </edge>
    <edge id=":11502109678_1" function="internal">
        <lane id=":11502109678_1_0" index="0" allow="pedestrian delivery bicycle" speed="6.92" length="10.17" shape="1429.92,3853.09 1429.53,3850.31 1430.09,3848.06 1431.62,3846.34 1434.09,3845.16"/>
    </edge>
    <edge id=":11502109678_2" function="internal">
        <lane id=":11502109678_2_0" index="0" allow="pedestrian delivery bicycle" speed="3.65" length="4.67" shape="1429.92,3853.09 1430.36,3851.71 1431.02,3851.11 1431.90,3851.28 1432.99,3852.21"/>
    </edge>
    <edge id=":11502109678_3" function="internal">
        <lane id=":11502109678_3_0" index="0" allow="pedestrian delivery bicycle" speed="5.12" length="5.09" shape="1435.04,3848.22 1433.82,3848.81 1433.07,3849.67 1432.79,3850.80 1432.99,3852.21"/>
    </edge>
    <edge id=":11502109678_4" function="internal">
        <lane id=":11502109678_4_0" index="0" disallow="tram rail_urban rail rail_electric rail_fast ship" speed="13.89" length="9.40" shape="1435.04,3848.22 1426.06,3851.00"/>
    </edge>
    <edge id=":11502109678_5" function="internal">
        <lane id=":11502109678_5_0" index="0" disallow="tram rail_urban rail rail_electric rail_fast ship" speed="13.89" length="9.40" shape="1425.12,3847.94 1434.09,3845.16"/>
    </edge>
    <edge id=":11502109678_6" function="internal">
        <lane id=":11502109678_6_0" index="0" allow="pedestrian delivery bicycle" speed="6.84" length="3.28" shape="1425.12,3847.94 1427.90,3847.50 1428.35,3847.61"/>
    </edge>
    <edge id=":11502109678_7" function="internal">
        <lane id=":11502109678_7_0" index="0" allow="pedestrian delivery bicycle" speed="6.84" length="6.99" shape="1428.35,3847.61 1430.15,3848.06 1431.84,3849.63 1432.99,3852.21"/>
    </edge>
    <edge id=":11694751715_0" function="internal">
        <lane id=":11694751715_0_0" index="0" allow="pedestrian delivery bicycle" speed="5.56" length="9.37" shape="443.71,4368.57 442.77,4365.95 442.08,4364.18 441.30,4362.44 440.07,4359.95"/>
    </edge>
    <edge id=":11694751715_1" function="internal">
        <lane id=":11694751715_1_0" index="0" allow="pedestrian delivery bicycle" speed="5.56" length="10.49" shape="443.71,4368.57 443.11,4365.75 443.51,4363.36 444.89,4361.42 447.26,4359.92"/>
    </edge>
    <edge id=":11694751715_2" function="internal">
        <lane id=":11694751715_2_0" index="0" allow="pedestrian delivery bicycle" speed="3.90" length="5.45" shape="443.71,4368.57 443.94,4366.90 444.58,4366.08 445.62,4366.09 447.07,4366.95"/>
    </edge>
    <edge id=":11694751715_3" function="internal">
        <lane id=":11694751715_3_0" index="0" allow="pedestrian delivery bicycle" speed="5.01" length="5.03" shape="448.57,4362.84 447.40,4363.58 446.76,4364.51 446.65,4365.64 447.07,4366.95"/>
    </edge>
    <edge id=":11694751715_4" function="internal">
        <lane id=":11694751715_4_0" index="0" allow="pedestrian delivery bicycle" speed="5.56" length="10.15" shape="448.57,4362.84 445.87,4363.63 443.56,4363.41 441.62,4362.19 440.07,4359.95"/>
    </edge>
    <edge id=":11694751715_5" function="internal">