<?xml version="1.0" encoding="UTF-8"?>

<!-- generated on 2026-05-07T11:03:24.424894+00:00 by 
-->

<Configuration xmlns:xsi="http://www.w3.org/2001/XMLSchema-instance" xsi:noNamespaceSchemaLocation="http://sumo.dlr.de/xsd/Configuration.xsd">

    <grid_network>
        <grid value="false"/>
    </grid_network>

    <spider_network>
        <spider value="false"/>
        <spider.omit-center value="true"/>
    </spider_network>

    <random_network>
        <rand value="true"/>
        <rand.grid value="true"/>
    </random_network>

    <output>
        <output-file value=""/>
    </output>

</Configuration>
