<?xml version="1.0" encoding="UTF-8"?>

<!-- generated on 2026-05-07T10:53:14.931764+00:00 by Eclipse SUMO netedit 1.26.0
<neteditConfiguration xmlns:xsi="http://www.w3.org/2001/XMLSchema-instance" xsi:noNamespaceSchemaLocation="http://sumo.dlr.de/xsd/neteditConfiguration.xsd">

    <input>
        <sumo-net-file value="C:\Users\LENOVO\Desktop\M-Stage\AI-Traffic-Accident-Simulation-System\data\test"/>
    </input>

    <output>
        <output-file value="C:\Users\LENOVO\Desktop\M-Stage\AI-Traffic-Accident-Simulation-System\data\test"/>
    </output>

    <processing>
        <offset.disable-normalization value="true"/>
    </processing>

    <junctions>
        <no-turnarounds value="true"/>
    </junctions>

    <netedit>
        <new-network value="false"/>
    </netedit>

</neteditConfiguration>
-->

<net version="1.20" junctionCornerDetail="5" limitTurnSpeed="5.50" xmlns:xsi="http://www.w3.org/2001/XMLSchema-instance" xsi:noNamespaceSchemaLocation="http://sumo.dlr.de/xsd/net_file.xsd">

    <location netOffset="0.00,0.00" convBoundary="-115.61,-47.68,41.34,41.22" origBoundary="10000000000.00,10000000000.00,-10000000000.00,-10000000000.00" projParameter="!"/>

    <edge id=":J0_0" function="internal">
        <lane id=":J0_0_0" index="0" speed="7.12" length="10.69" shape="-77.48,-1.77 -76.91,0.65 -75.42,2.38 -73.03,3.41 -69.73,3.75"/>
    </edge>
    <edge id=":J0_1" function="internal">
        <lane id=":J0_1_0" index="0" speed="11.15" length="12.74" shape="-77.48,-1.77 -77.01,1.30 -75.88,4.13 -74.09,6.74 -71.63,9.13"/>
    </edge>
    <edge id=":J0_2" function="internal">
        <lane id=":J0_2_0" index="0" speed="5.40" length="9.52" shape="-77.48,-1.77 -78.34,0.19 -80.49,1.65 -83.05,2.23 -85.10,1.55"/>
    </edge>
    <edge id=":J0_3" function="internal">
        <lane id=":J0_3_0" index="0" speed="6.50" length="9.03" shape="-84.93,9.46 -83.49,7.45 -83.03,5.46 -83.57,3.49 -85.10,1.55"/>
    </edge>
    <edge id=":J0_4" function="internal">
        <lane id=":J0_4_0" index="0" speed="13.19" length="16.68" shape="-84.93,9.46 -81.93,6.97 -78.40,5.19 -74.33,4.12 -69.73,3.75"/>
    </edge>
    <edge id=":J0_5" function="internal">
        <lane id=":J0_5_0" index="0" speed="8.27" length="14.26" shape="-84.93,9.46 -82.07,7.69 -78.44,7.07 -74.74,7.56 -71.63,9.13"/>
    </edge>
    <edge id=":J3_0" function="internal">
        <lane id=":J3_0_0" index="0" speed="7.04" length="10.67" shape="-20.63,-26.69 -21.06,-29.13 -22.45,-30.90 -24.80,-32.01 -28.11,-32.45"/>
    </edge>
    <edge id=":J3_1" function="internal">
        <lane id=":J3_1_0" index="0" speed="11.13" length="13.85" shape="-20.63,-26.69 -20.99,-29.80 -22.18,-32.80 -24.20,-35.68 -27.05,-38.44"/>
    </edge>
    <edge id=":J3_2" function="internal">
        <lane id=":J3_2_0" index="0" speed="7.24" length="11.61" shape="-20.63,-26.69 -20.21,-30.51 -19.11,-33.20 -17.34,-34.77 -14.88,-35.21"/>
    </edge>
    <edge id=":J5_0" function="internal">
        <lane id=":J5_0_0" index="0" speed="3.90" length="2.72" shape="-77.10,-33.91 -77.85,-33.82 -78.37,-33.52 -78.67,-32.99 -78.75,-32.24"/>
    </edge>
    <edge id=":J9_0" function="internal">
        <lane id=":J9_0_0" index="0" speed="4.38" length="1.08" shape="-36.55,37.69 -36.30,37.89 -36.11,37.99 -35.89,38.04 -35.58,38.05"/>
    </edge>

    <edge id="E0" from="J0" to="J1" priority="-1">
        <lane id="E0_0" index="0" speed="13.89" length="109.12" shape="-69.73,3.75 39.39,3.52"/>
    </edge>
    <edge id="E1" from="J2" to="J3" priority="-1">
        <lane id="E1_0" index="0" speed="13.89" length="32.04" shape="-21.23,5.34 -20.63,-26.69"/>
    </edge>
    <edge id="E2" from="J3" to="J4" priority="-1">
        <lane id="E2_0" index="0" speed="13.89" length="51.45" shape="-14.88,-35.21 36.53,-33.06"/>
    </edge>
    <edge id="E3" from="J3" to="J5" priority="-1">
        <lane id="E3_0" index="0" speed="13.89" length="49.01" shape="-28.11,-32.45 -77.10,-33.91"/>
    </edge>
    <edge id="E4" from="J3" to="J6" priority="-1">
        <lane id="E4_0" index="0" speed="13.89" length="12.57" shape="-27.05,-38.44 -36.75,-46.45"/>
    </edge>
    <edge id="E5" from="J7" to="J0" priority="-1">
        <lane id="E5_0" index="0" speed="13.89" length="41.17" shape="-113.47,39.13 -84.93,9.46"/>
    </edge>
    <edge id="E6" from="J5" to="J0" priority="-1">
        <lane id="E6_0" index="0" speed="13.89" length="30.50" shape="-78.75,-32.24 -77.48,-1.77"/>
    </edge>
    <edge id="E7" from="J0" to="J8" priority="-1">
        <lane id="E7_0" index="0" speed="13.89" length="43.68" shape="-85.10,1.55 -116.71,-28.60"/>
    </edge>
    <edge id="E8" from="J0" to="J9" priority="-1">
        <lane id="E8_0" index="0" speed="13.89" length="45.24" shape="-71.63,9.13 -36.55,37.69"/>
    </edge>
    <edge id="E9" from="J9" to="J10" priority="-1">
        <lane id="E9_0" index="0" speed="13.89" length="76.96" shape="-35.58,38.05 41.37,39.62"/>
    </edge>

    <tlLogic id="J0" type="static" programID="0" offset="0">
        <phase duration="42" state="GGGrrr"/>
        <phase duration="3"  state="yyyrrr"/>
        <phase duration="42" state="rrrGGG"/>
        <phase duration="3"  state="rrryyy"/>
    </tlLogic>
    <tlLogic id="J3" type="static" programID="0" offset="0">
        <phase duration="82" state="GGG"/>
        <phase duration="3"  state="yyy"/>
        <phase duration="5"  state="rrr"/>
    </tlLogic>

    <junction id="J0" type="traffic_light" x="-78.78" y="5.37" incLanes="E6_0 E5_0" intLanes=":J0_0_0 :J0_1_0 :J0_2_0 :J0_3_0 :J0_4_0 :J0_5_0" shape="-72.64,10.37 -70.62,7.89 -71.90,6.48 -71.95,5.99 -71.60,5.64 -70.86,5.42 -69.73,5.35 -69.73,2.15 -73.07,1.71 -74.26,1.16 -75.12,0.39 -75.66,-0.61 -75.88,-1.83 -79.07,-1.70 -79.13,0.32 -79.49,1.67 -80.16,2.36 -81.13,2.37 -82.41,1.72 -84.00,0.39 -86.21,2.71 -84.91,4.56 -84.73,5.50 -84.87,6.44 -85.32,7.39 -86.09,8.35 -83.78,10.57 -82.08,9.12 -80.32,8.24 -78.50,7.92 -76.61,8.17 -74.66,8.98">
        <request index="0" response="000000" foes="010000" cont="0"/>
        <request index="1" response="000000" foes="110000" cont="0"/>
        <request index="2" response="001000" foes="001000" cont="0"/>
        <request index="3" response="000000" foes="000100" cont="0"/>
        <request index="4" response="000011" foes="000011" cont="0"/>
        <request index="5" response="000010" foes="000010" cont="0"/>
    </junction>
    <junction id="J1" type="dead_end" x="39.39" y="5.12" incLanes="E0_0" intLanes="" shape="39.38,1.92 39.39,5.12"/>
    <junction id="J10" type="dead_end" x="41.34" y="41.22" incLanes="E9_0" intLanes="" shape="41.41,38.02 41.34,41.22"/>
    <junction id="J2" type="dead_end" x="-19.63" y="5.37" incLanes="" intLanes="" shape="-19.63,5.37 -22.83,5.31"/>
    <junction id="J3" type="traffic_light" x="-18.90" y="-33.78" incLanes="E1_0" intLanes=":J3_0_0 :J3_1_0 :J3_2_0" shape="-14.95,-33.61 -14.81,-36.81 -17.34,-36.85 -19.30,-36.84 -20.92,-36.95 -22.43,-37.35 -24.06,-38.20 -26.04,-39.67 -28.07,-37.21 -26.31,-35.40 -26.09,-34.78 -26.31,-34.35 -26.97,-34.11 -28.07,-34.05 -28.16,-30.85 -24.83,-30.32 -23.68,-29.73 -22.86,-28.94 -22.38,-27.93 -22.23,-26.72 -19.03,-26.66 -18.88,-28.83 -18.52,-30.60 -17.95,-31.96 -17.16,-32.92 -16.16,-33.47">
        <request index="0" response="000" foes="000" cont="0"/>
        <request index="1" response="000" foes="000" cont="0"/>
        <request index="2" response="000" foes="000" cont="0"/>
    </junction>
    <junction id="J4" type="dead_end" x="36.46" y="-31.46" incLanes="E2_0" intLanes="" shape="36.59,-34.66 36.46,-31.46"/>
    <junction id="J5" type="priority" x="-80.49" y="-35.61" incLanes="E3_0" intLanes=":J5_0_0" shape="-80.35,-32.18 -77.15,-32.31 -77.05,-35.51 -78.95,-35.18 -79.60,-34.73 -80.04,-34.07 -80.30,-33.22">
        <request index="0" response="0" foes="0" cont="0"/>
    </junction>
    <junction id="J6" type="dead_end" x="-35.73" y="-47.68" incLanes="E4_0" intLanes="" shape="-37.77,-45.21 -35.73,-47.68"/>
    <junction id="J7" type="dead_end" x="-112.32" y="40.24" incLanes="" intLanes="" shape="-112.32,40.24 -114.63,38.02"/>
    <junction id="J8" type="dead_end" x="-115.61" y="-29.76" incLanes="E7_0" intLanes="" shape="-117.82,-27.44 -115.61,-29.76"/>
    <junction id="J9" type="priority" x="-36.71" y="39.63" incLanes="E8_0" intLanes=":J9_0_0" shape="-35.61,39.65 -35.54,36.45 -37.56,38.93 -36.93,39.41 -36.67,39.53 -36.40,39.60 -36.06,39.64">
        <request index="0" response="0" foes="0" cont="0"/>
    </junction>

    <connection from="E1" to="E3" fromLane="0" toLane="0" via=":J3_0_0" tl="J3" linkIndex="0" dir="r" state="O"/>
    <connection from="E1" to="E4" fromLane="0" toLane="0" via=":J3_1_0" tl="J3" linkIndex="1" dir="R" state="O"/>
    <connection from="E1" to="E2" fromLane="0" toLane="0" via=":J3_2_0" tl="J3" linkIndex="2" dir="l" state="O"/>
    <connection from="E3" to="E6" fromLane="0" toLane="0" via=":J5_0_0" dir="r" state="M"/>
    <connection from="E5" to="E7" fromLane="0" toLane="0" via=":J0_3_0" tl="J0" linkIndex="3" dir="r" state="O"/>
    <connection from="E5" to="E0" fromLane="0" toLane="0" via=":J0_4_0" tl="J0" linkIndex="4" dir="L" state="o"/>
    <connection from="E5" to="E8" fromLane="0" toLane="0" via=":J0_5_0" tl="J0" linkIndex="5" dir="l" state="o"/>
    <connection from="E6" to="E0" fromLane="0" toLane="0" via=":J0_0_0" tl="J0" linkIndex="0" dir="r" state="O"/>
    <connection from="E6" to="E8" fromLane="0" toLane="0" via=":J0_1_0" tl="J0" linkIndex="1" dir="R" state="O"/>
    <connection from="E6" to="E7" fromLane="0" toLane="0" via=":J0_2_0" tl="J0" linkIndex="2" dir="l" state="o"/>
    <connection from="E8" to="E9" fromLane="0" toLane="0" via=":J9_0_0" dir="s" state="M"/>

    <connection from=":J0_0" to="E0" fromLane="0" toLane="0" dir="r" state="M"/>
    <connection from=":J0_1" to="E8" fromLane="0" toLane="0" dir="R" state="M"/>
    <connection from=":J0_2" to="E7" fromLane="0" toLane="0" dir="l" state="M"/>
    <connection from=":J0_3" to="E7" fromLane="0" toLane="0" dir="r" state="M"/>
    <connection from=":J0_4" to="E0" fromLane="0" toLane="0" dir="L" state="M"/>
    <connection from=":J0_5" to="E8" fromLane="0" toLane="0" dir="l" state="M"/>
    <connection from=":J3_0" to="E3" fromLane="0" toLane="0" dir="r" state="M"/>
    <connection from=":J3_1" to="E4" fromLane="0" toLane="0" dir="R" state="M"/>
    <connection from=":J3_2" to="E2" fromLane="0" toLane="0" dir="l" state="M"/>
    <connection from=":J5_0" to="E6" fromLane="0" toLane="0" dir="r" state="M"/>
    <connection from=":J9_0" to="E9" fromLane="0" toLane="0" dir="s" state="M"/>

</net>
