<?xml version='1.0' encoding='utf-8'?>
<routes>
  <vType id="DEFAULT_VEHTYPE" accel="3.0" decel="6.0" maxSpeed="22.22" speedFactor="1.2" speedDev="0.1" sigma="0.3" length="4.5" minGap="1.5" tau="0.8" lcStrategic="1.0" lcCooperative="0.3" />
  <route id="r0" edges="1316035067#2 1316035067#4 1316035067#5 1316035067#6 1316035067#7 1316035067#8" />
  <route id="r1" edges="583602961#2 583602961#3" />
  <route id="r2" edges="315384868 -315384868 509616556#2 545576577#0 545576577#1 545576577#2 588508386#1 588508386#2 588508386#3 588508386#4 857501633#2 1110911770 1111569811 57899745#0 57899745#1 1428288126#0 1428288126#1 1428288126#4 -1428288126#4 -1428288126#1" />
  <route id="r3" edges="-545576576#1 -509616556#2 -509616556#0 509616554 509616555#1 36852365#1 36852365#2 573723858 514228253 422535830#1 422535830#2 -458156311#1 458156311#1 57899744#1 57899744#2 108730135#0 108730135#1 392491121 -392491121" />
  <route id="r4" edges="1029647112#3 1029647112#4 573723838 -578812425#1 57899744#4 515278525#0 515278525#1 515278525#1-AddedOffRampEdge 488663951 203831004#2-AddedOnRampEdge 203831004#2 -315384816#1 -315384816#0 -545576576#1 -545576576#0 701823713#0 701823713#1 174115208 290617654#0 290617654#1" />
  <route id="r5" edges="319127442 44619018#2 392483369 -1070214755 573723859 -714182864 714182863#0 714182863#1 315384815#0 315384815#1 174115288#0 637416531 423032197#1 423032197#2 857501633#0 857501633#1 857501633#2 36852270#0 36852270#4 36852270#5-AddedOnRampEdge" />
  <route id="r6" edges="521254462#1 1110911773 203831004#0 203831004#1 203831004#2-AddedOnRampEdge 203831004#2 203831004#4 36852365#1 36852365#2 573723858 514228253 422535909#0 422535909#1 422535909#2 573723837 738677099 -458156297#1 -458156297#0 458156297#0 458156297#1" />
  <route id="r7" edges="186242119#5 1111569811 1110911769 1110911773 203831004#0 203831004#1 203831004#2-AddedOnRampEdge 203831004#2 -315384816#1 -315384816#0 -545576576#1 -545576576#0 701823713#0 701823713#1 174115208 290617654#0 290617654#1" />
  <route id="r8" edges="392491111#0 392491117#0 392491117#1 -108730135#1 -108730135#0 57899744#3 57899744#4 515278525#0 515278525#1 515278525#1-AddedOffRampEdge 521254462#1 1110911773 1110911771 857501633#0 857501633#1 857501633#2 36852270#0 36852270#4 36852270#5-AddedOnRampEdge 36852270#5" />
  <route id="r9" edges="1428288127 -1428288127 -1428288129#0 -1059846340#2 458156311#1 57899744#1 57899744#2 57899744#3 57899744#4 422535915 1055761576#0 1055761576#1 1055761576#2 -714182864 714182863#0 714182863#1 203831004#9 423032199#1 203831009#0 203831009#1" />
  <route id="r10" edges="509616556#2 545576577#0 545576577#1 545576577#2 588508386#1 588508386#2 588508386#3 588508386#4 857501633#2 1110911770 1111569811 57899745#0 57899745#1 1428288126#0 1428288126#1 1428288126#4 -1428288126#4 -1428288126#1 -1428288126#0" />
  <route id="r11" edges="203831004#1 203831004#2-AddedOnRampEdge 203831004#2 509616555#6 509616555#7-AddedOnRampEdge 509616555#7 423032197#1 423032197#2 857501633#0 857501633#1 857501633#2 1110911770 1111569811 57899745#0 57899745#1 1428288126#0 1428288126#1 1428288126#4 -1428288126#4 -1428288126#1" />
  <route id="r12" edges="186242119#0 186242119#1 186242119#5 1111569811 1110911769 1110911773 203831004#0 203831004#1 203831004#2-AddedOnRampEdge 203831004#2 -315384816#1 -315384816#0 -545576576#1 -545576576#0 701823713#0 701823713#1 174115208 290617654#0 290617654#1" />
  <route id="r13" edges="1029647113 1029647112#4 573723838 -578812425#1 57899744#4 515278525#0 515278525#1 515278525#1-AddedOffRampEdge 488663951 203831004#2-AddedOnRampEdge 203831004#2 -315384816#1 -315384816#0 -545576576#1 -545576576#0 701823713#0 701823713#1 174115208 290617654#0 290617654#1" />
  <route id="r14" edges="-392491121 -108730135#1 -108730135#0 57899744#3 57899744#4 515278525#0 515278525#1 515278525#1-AddedOffRampEdge 488663951 203831004#2-AddedOnRampEdge 203831004#2 -315384816#1 -315384816#0 -545576576#1 -545576576#0 701823713#0 701823713#1 174115208 290617654#0 290617654#1" />
  <route id="r15" edges="-1370784474 -1238214134#1 -1238214134#0 174115288#4 588508386#2 588508386#3 588508386#4 857501633#2 1110911770 1111569811 57899745#0 57899745#1 57899745#2 422535909#0 422535909#1 422535909#2 573723837 738677099 -458156297#1 -458156297#0" />
  <route id="r16" edges="36852270#4 36852270#5-AddedOnRampEdge 36852270#5 36852270#6" />
  <route id="r17" edges="-1238214134#2 1370784474 -1238214134#0 174115288#4 588508386#2 588508386#3 588508386#4 857501633#2 1110911770 1111569811 57899745#0 57899745#1 57899745#2 422535909#0 422535909#1 422535909#2 573723837 738677099 -458156297#1 -458156297#0" />
  <route id="r18" edges="1055120506 -1055120506 108730141#0 108730141#1 108730141#2 57899744#4 515278525#0 515278525#1 515278525#1-AddedOffRampEdge 521254462#1 1110911773 1110911771 857501633#0 857501633#1 857501633#2 36852270#0 36852270#4 36852270#5-AddedOnRampEdge 36852270#5 36852270#6" />
  <route id="r19" edges="322858905#3 1316035068#7 1316035068#8" />
  <route id="r20" edges="-588508358#1 588508358#1 215616069#2 515278525#0 515278525#1 515278525#1-AddedOffRampEdge 521254462#1 1110911773 1110911771 857501633#0 857501633#1 857501633#2 1110911770 1111569811 57899745#0 57899745#1 1428288126#0 1428288126#1 1428288126#4 187372347" />
  <route id="r21" edges="588508386#3 588508386#4 857501633#2 1110911770 1111569811 1110911769 1110911773 203831004#0 203831004#1 203831004#2-AddedOnRampEdge 203831004#2 -315384816#1 -315384816#0 -545576576#1 -545576576#0 701823713#0 701823713#1 174115208 290617654#0 290617654#1" />
  <route id="r22" edges="422535909#0 588508358#1 215616069#2 515278525#0 515278525#1 515278525#1-AddedOffRampEdge 521254462#1 1110911773 1110911771 857501633#0 857501633#1 857501633#2 1110911770 1111569811 57899745#0 57899745#1 1428288126#0 1428288126#1 1428288126#4 187372347" />
  <route id="r23" edges="-573723824 -592849137#0 392483369 -1070214755 573723859 -714182864 714182863#0 714182863#1 315384815#0 315384815#1 174115288#0 637416531 423032197#1 423032197#2 857501633#0 857501633#1 857501633#2 36852270#0 36852270#4 36852270#5-AddedOnRampEdge" />
  <route id="r24" edges="203831004#0 203831004#1 203831004#2-AddedOnRampEdge 203831004#2 509616555#6 509616555#7-AddedOnRampEdge 509616555#7 423032197#1 423032197#2 857501633#0 857501633#1 857501633#2 1110911770 1111569811 57899745#0 57899745#1 1428288126#0 1428288126#1 1428288126#4 187372347" />
  <route id="r25" edges="-1236190978 57899745#1 57899745#2 515278525#0 515278525#1 515278525#1-AddedOffRampEdge 488663951 203831004#2-AddedOnRampEdge 203831004#2 -315384816#1 -315384816#0 -545576576#1 -545576576#0 701823713#0 701823713#1 174115208 290617654#0 290617654#1" />
  <route id="r26" edges="392483369 -1070214755 573723859 -714182864 714182863#0 714182863#1 315384815#0 315384815#1 174115288#0 637416531 423032197#1 423032197#2 857501633#0 857501633#1 857501633#2 36852270#0 36852270#4 36852270#5-AddedOnRampEdge 36852270#5 36852270#6" />
  <route id="r27" edges="592144066 583602961#2 583602961#3" />
  <route id="r28" edges="573723837 738677098 588508392 215616069#0 215616069#1 215616069#2 515278525#0 515278525#1 515278525#1-AddedOffRampEdge 488663951 203831004#2-AddedOnRampEdge 203831004#2 -315384816#1 -315384816#0 -545576576#1 -545576576#0 701823713#0 701823713#1 174115208 290617654#0" />
  <route id="r29" edges="-174115208 174115208 290617654#0 290617654#1 509616556#0 509616556#2 545576577#0 545576577#1 545576577#2 588508386#1 588508386#2 588508386#3 588508386#4 857501633#2 1110911770 1111569811 57899745#0 57899745#1 1428288126#0 1428288126#1" />
  <route id="r30" edges="-1070214754 -105623068#1 -105623068#0 41830790#1 514228253 515278525#0 515278525#1 515278525#1-AddedOffRampEdge 521254462#1 1110911773 1110911771 857501633#0 857501633#1 857501633#2 1110911770 1111569811 57899745#0 57899745#1 1428288126#0 1428288126#1" />
  <route id="r31" edges="509616555#1 509616555#3 509616555#4 509616555#6 509616555#7-AddedOnRampEdge 509616555#7 423032197#1 423032197#2 857501633#0 857501633#1 857501633#2 1110911770 1111569811 57899745#0 57899745#1 1428288126#0 1428288126#1 1428288126#4 -1428288126#4 -1428288126#1" />
  <route id="r32" edges="322858905#4 322858905#5" />
  <route id="r33" edges="-588508376 36852365#2 573723858 514228253 515278525#0 515278525#1 515278525#1-AddedOffRampEdge 521254462#1 1110911773 1110911771 857501633#0 857501633#1 857501633#2 1110911770 1111569811 57899745#0 57899745#1 1428288126#0 1428288126#1 1428288126#4" />
  <route id="r34" edges="1349094940#0 1349094940#1" />
  <route id="r35" edges="203831009#3 514228253 515278525#0 515278525#1 515278525#1-AddedOffRampEdge 521254462#1 1110911773 1110911771 857501633#0 857501633#1 857501633#2 1110911770 1111569811 57899745#0 57899745#1 1428288126#0 1428288126#1 1428288126#4 -1428288126#4 -1428288126#1" />
  <route id="r36" edges="57899744#3 57899744#4 515278525#0 515278525#1 515278525#1-AddedOffRampEdge 521254462#1 1110911773 1110911771 857501633#0 857501633#1 857501633#2 1110911770 1111569811 57899745#0 57899745#1 1428288126#0 1428288126#1 1428288126#4 -1428288126#4 -1428288126#1" />
  <route id="r37" edges="174115288#2 174115288#3 174115288#4 588508386#2 588508386#3 588508386#4 857501633#2 1110911770 1111569811 57899745#0 57899745#1 57899745#2 422535909#0 422535909#1 422535909#2 573723837 738677099 -458156297#1 -458156297#0 458156297#0" />
  <route id="r38" edges="44619018#2 392483369 -1070214755 573723859 -714182864 714182863#0 714182863#1 315384815#0 315384815#1 174115288#0 637416531 423032197#1 423032197#2 857501633#0 857501633#1 857501633#2 36852270#0 36852270#4 36852270#5-AddedOnRampEdge 36852270#5" />
  <route id="r39" edges="-1453652489 1453652489 186242119#5 1111569811 1110911769 1110911773 203831004#0 203831004#1 203831004#2-AddedOnRampEdge 203831004#2 -315384816#1 -315384816#0 -545576576#1 -545576576#0 701823713#0 701823713#1 174115208 290617654#0 290617654#1" />
  <route id="r40" edges="-174115129 -105623068#0 41830790#1 514228253 515278525#0 515278525#1 515278525#1-AddedOffRampEdge 521254462#1 1110911773 1110911771 857501633#0 857501633#1 857501633#2 1110911770 1111569811 57899745#0 57899745#1 1428288126#0 1428288126#1 1428288126#4" />
  <route id="r41" edges="592849129 -592849137#1 -592849137#0 392483369 -1070214755 573723859 -714182864 714182863#0 714182863#1 315384815#0 315384815#1 -545576576#1 545576577#0 545576577#1 545576577#2 588508386#1 588508386#2 588508386#3 857501632 583602961#1" />
  <route id="r42" edges="1055761576#2 -714182864 714182863#0 714182863#1 315384815#0 315384815#1 174115288#0 637416531 423032197#1 423032197#2 857501633#0 857501633#1 857501633#2 1110911770 1111569811 57899745#0 57899745#1 1428288126#0 1428288126#1 1428288126#4" />
  <route id="r43" edges="1029647112#4 573723838 -578812425#1 57899744#4 515278525#0 515278525#1 515278525#1-AddedOffRampEdge 521254462#1 1110911773 1110911771 857501633#0 857501633#1 857501633#2 1110911770 1111569811 57899745#0 57899745#1 1428288126#0 1428288126#1 1428288126#4" />
  <route id="r44" edges="545576577#0 545576577#1 545576577#2 588508386#1 588508386#2 588508386#3 588508386#4 857501633#2 1110911770 1111569811 57899745#0 57899745#1 57899745#2 422535909#0 422535909#1 422535909#2 573723837 738677099 -458156297#1 -458156297#0" />
  <route id="r45" edges="509616555#7-AddedOnRampEdge 509616555#7 423032197#1 423032197#2 857501633#0 857501633#1 857501633#2 1110911770 1111569811 57899745#0 57899745#1 57899745#2 422535909#0 422535909#1 422535909#2 573723837 738677099 -458156297#1 -458156297#0 458156297#0" />
  <route id="r46" edges="637416531 423032197#1 423032197#2 857501633#0 857501633#1 857501633#2 1110911770 1111569811 57899745#0 57899745#1 57899745#2 422535909#0 422535909#1 422535909#2 573723837 738677099 -458156297#1 -458156297#0 458156297#0 458156297#1" />
  <route id="r47" edges="1428288126#1 1428288126#4 187372347 1453652489 186242119#5 1111569811 1110911769 1110911773 203831004#0 203831004#1 203831004#2-AddedOnRampEdge 203831004#2 -315384816#1 -315384816#0 -545576576#1 -545576576#0 701823713#0 701823713#1 174115208 290617654#0" />
  <route id="r48" edges="488663951 203831004#2-AddedOnRampEdge 203831004#2 509616555#6 509616555#7-AddedOnRampEdge 509616555#7 423032197#1 423032197#2 857501633#0 857501633#1 857501633#2 1110911770 1111569811 57899745#0 57899745#1 1428288126#0 1428288126#1 1428288126#4 -1428288126#4 -1428288126#1" />
  <route id="r49" edges="-740164670 740164670 714182863#1 315384815#0 315384815#1 174115288#0 637416531 423032197#1 423032197#2 857501633#0 857501633#1 857501633#2 1110911770 1111569811 57899745#0 57899745#1 1428288126#0 1428288126#1 1428288126#4 187372347" />
  <route id="r50" edges="-592849137#0 392483369 -1070214755 573723859 -714182864 714182863#0 714182863#1 315384815#0 315384815#1 174115288#0 637416531 423032197#1 423032197#2 857501633#0 857501633#1 857501633#2 36852270#0 36852270#4 36852270#5-AddedOnRampEdge 36852270#5" />
  <route id="r51" edges="-392483751#0 -592849135#1 -592849137#1 -592849137#0 392483369 -1070214755 573723859 -714182864 714182863#0 714182863#1 315384815#0 315384815#1 -545576576#1 545576577#0 545576577#1 545576577#2 588508386#1 588508386#2 592144066 583602961#2" />
  <route id="r52" edges="738677098 588508392 215616069#0 215616069#1 215616069#2 515278525#0 515278525#1 515278525#1-AddedOffRampEdge 488663951 203831004#2-AddedOnRampEdge 203831004#2 -315384816#1 -315384816#0 -545576576#1 -545576576#0 701823713#0 701823713#1 174115208 290617654#0 290617654#1" />
  <route id="r53" edges="-592849129 592849129 -592849137#1 -592849137#0 392483369 -1070214755 573723859 -714182864 714182863#0 714182863#1 315384815#0 315384815#1 -545576576#1 545576577#0 545576577#1 545576577#2 588508386#1 588508386#2 592144066 583602961#2" />
  <route id="r54" edges="1316035067#0 1316035067#1 1316035067#2 1316035067#4 1316035067#5 1316035067#6 1316035067#7 1316035067#8" />
  <route id="r55" edges="315384816#1 509616555#6 509616555#7-AddedOnRampEdge 509616555#7 423032197#1 423032197#2 857501633#0 857501633#1 857501633#2 1110911770 1111569811 57899745#0 57899745#1 1428288126#0 1428288126#1 1428288126#4 -1428288126#4 -1428288126#1 -1428288126#0" />
  <route id="r56" edges="215616069#0 215616069#1 215616069#2 515278525#0 515278525#1 515278525#1-AddedOffRampEdge 521254462#1 1110911773 1110911771 857501633#0 857501633#1 857501633#2 1110911770 1111569811 57899745#0 57899745#1 1428288126#0 1428288126#1 1428288126#4 187372347" />
  <route id="r57" edges="588508387#1 545576577#2 588508386#1 588508386#2 588508386#3 588508386#4 857501633#2 1110911770 1111569811 57899745#0 57899745#1 57899745#2 422535909#0 422535909#1 422535909#2 573723837 738677099 -458156297#1 -458156297#0 458156297#0" />
  <route id="r58" edges="203831004#2 509616555#6 509616555#7-AddedOnRampEdge 509616555#7 423032197#1 423032197#2 857501633#0 857501633#1 857501633#2 1110911770 1111569811 57899745#0 57899745#1 1428288126#0 1428288126#1 1428288126#4 -1428288126#4 -1428288126#1 -1428288126#0" />
  <route id="r59" edges="588508386#1 588508386#2 588508386#3 588508386#4 857501633#2 1110911770 1111569811 57899745#0 57899745#1 57899745#2 422535830#1 422535830#2 -458156311#1 458156311#1 57899744#1 57899744#2 108730135#0 108730135#1 392491121 -392491121" />
  <route id="r60" edges="203831004#6 315384815#0 315384815#1 174115288#0 637416531 423032197#1 423032197#2 857501633#0 857501633#1 857501633#2 1110911770 1111569811 57899745#0 57899745#1 1428288126#0 1428288126#1 1428288126#4 -1428288126#4 -1428288126#1 -1428288126#0" />
  <route id="r61" edges="-392491111#0 392483751#2 -1055120506 108730141#0 108730141#1 108730141#2 57899744#4 515278525#0 515278525#1 515278525#1-AddedOffRampEdge 521254462#1 1110911773 1110911771 857501633#0 857501633#1 857501633#2 36852270#0 36852270#4 36852270#5-AddedOnRampEdge 36852270#5" />
  <route id="r62" edges="1111569811 1110911769 1110911773 203831004#0 203831004#1 203831004#2-AddedOnRampEdge 203831004#2 -315384816#1 -315384816#0 -545576576#1 -545576576#0 701823713#0 701823713#1 174115208 290617654#0 290617654#1" />
  <route id="r63" edges="392491114 -392491114 392491117#1 -108730135#1 -108730135#0 57899744#3 57899744#4 515278525#0 515278525#1 515278525#1-AddedOffRampEdge 488663951 203831004#2-AddedOnRampEdge 203831004#2 -315384816#1 -315384816#0 -545576576#1 -545576576#0 701823713#0 701823713#1 174115208" />
  <route id="r64" edges="392491111#1 -392491111#1 392491117#0 392491117#1 -108730135#1 -108730135#0 57899744#3 57899744#4 515278525#0 515278525#1 515278525#1-AddedOffRampEdge 521254462#1 1110911773 1110911771 857501633#0 588508387#0 588508387#1 545576577#2 575598822 583602961#3" />
  <route id="r65" edges="583602961#1 583602961#2 583602961#3" />
  <route id="r66" edges="588508387#0 588508386#2 588508386#3 588508386#4 857501633#2 1110911770 1111569811 57899745#0 57899745#1 57899745#2 422535830#1 422535830#2 -458156311#1 458156311#1 57899744#1 57899744#2 108730135#0 108730135#1 392491121 -392491121" />
  <route id="r67" edges="-509616556#2 272993160 315384815#1 174115288#0 637416531 423032197#1 423032197#2 857501633#0 857501633#1 857501633#2 1110911770 1111569811 57899745#0 57899745#1 1428288126#0 1428288126#1 1428288126#4 -1428288126#4 -1428288126#1 -1428288126#0" />
  <route id="r68" edges="1059846340#3 -1059846340#3 -1059846340#2 458156311#1 57899744#1 57899744#2 57899744#3 57899744#4 422535915 1055761576#0 1055761576#1 1055761576#2 -714182864 714182863#0 714182863#1 203831004#9 423032199#1 203831009#0 203831009#1 203831009#2" />
  <route id="r69" edges="174115288#1 174115288#2 174115288#3 174115288#4 588508386#2 588508386#3 588508386#4 857501633#2 1110911770 1111569811 57899745#0 57899745#1 57899745#2 422535909#0 422535909#1 422535909#2 573723837 738677099 -458156297#1 -458156297#0" />
  <route id="r70" edges="1346169836#0 1346169836#1 1316035068#2 1316035068#3 1316035068#4 1316035068#6 1316035068#7 1316035068#8" />
  <route id="r71" edges="-1070214755 573723859 -714182864 714182863#0 714182863#1 315384815#0 315384815#1 174115288#0 637416531 423032197#1 423032197#2 857501633#0 857501633#1 857501633#2 1110911770 1111569811 57899745#0 57899745#1 1428288126#0 1428288126#1" />
  <route id="r72" edges="1428288126#4 187372347 1453652489 186242119#5 1111569811 1110911769 1110911773 203831004#0 203831004#1 203831004#2-AddedOnRampEdge 203831004#2 -315384816#1 -315384816#0 -545576576#1 -545576576#0 701823713#0 701823713#1 174115208 290617654#0 290617654#1" />
  <route id="r73" edges="422535909#2 264034458 215616069#0 215616069#1 215616069#2 515278525#0 515278525#1 515278525#1-AddedOffRampEdge 488663951 203831004#2-AddedOnRampEdge 203831004#2 -315384816#1 -315384816#0 -545576576#1 -545576576#0 701823713#0 701823713#1 174115208 290617654#0 290617654#1" />
  <route id="r74" edges="578812422 108730141#1 108730141#2 57899744#4 515278525#0 515278525#1 515278525#1-AddedOffRampEdge 521254462#1 1110911773 1110911771 857501633#0 857501633#1 857501633#2 1110911770 1111569811 57899745#0 57899745#1 1428288126#0 1428288126#1 1428288126#4" />
  <route id="r75" edges="105623038 41830790#0 41830790#1 514228253 515278525#0 515278525#1 515278525#1-AddedOffRampEdge 521254462#1 1110911773 1110911771 857501633#0 857501633#1 857501633#2 1110911770 1111569811 57899745#0 57899745#1 1428288126#0 1428288126#1 1428288126#4" />
  <route id="r76" edges="-578812425#1 57899744#4 515278525#0 515278525#1 515278525#1-AddedOffRampEdge 521254462#1 1110911773 1110911771 857501633#0 857501633#1 857501633#2 1110911770 1111569811 57899745#0 57899745#1 1428288126#0 1428288126#1 1428288126#4 -1428288126#4 -1428288126#1" />
  <route id="r77" edges="1316035068#0 1316035068#1 1316035068#2 1316035068#3 1316035068#4 1316035068#6 1316035068#7 1316035068#8" />
  <route id="r78" edges="-1059846340#3 -1059846340#2 458156311#1 57899744#1 57899744#2 57899744#3 57899744#4 515278525#0 515278525#1 515278525#1-AddedOffRampEdge 488663951 203831004#2-AddedOnRampEdge 203831004#2 -315384816#1 -315384816#0 -545576576#1 -545576576#0 701823713#0 701823713#1 174115208" />
  <route id="r79" edges="1059846340#2 -1059846340#2 458156311#1 57899744#1 57899744#2 57899744#3 57899744#4 515278525#0 515278525#1 515278525#1-AddedOffRampEdge 488663951 203831004#2-AddedOnRampEdge 203831004#2 -315384816#1 -315384816#0 -545576576#1 -545576576#0 701823713#0 701823713#1 174115208" />
  <route id="r80" edges="422849180 420950795#0 420950795#2 423032198#0 315384815#0 315384815#1 174115288#0 637416531 423032197#1 423032197#2 857501633#0 857501633#1 857501633#2 1110911770 1111569811 57899745#0 57899745#1 1428288126#0 1428288126#1 1428288126#4" />
  <route id="r81" edges="422535909#1 588508391#1 215616069#1 215616069#2 515278525#0 515278525#1 515278525#1-AddedOffRampEdge 521254462#1 1110911773 1110911771 857501633#0 857501633#1 857501633#2 1110911770 1111569811 57899745#0 57899745#1 1428288126#0 1428288126#1 1428288126#4" />
  <route id="r82" edges="592849135#1 392483751#0 392483751#1 392483751#2 -1055120506 108730141#0 108730141#1 108730141#2 57899744#4 515278525#0 515278525#1 515278525#1-AddedOffRampEdge 521254462#1 1110911773 1110911771 857501633#0 588508387#0 588508386#2 592144066 583602961#2" />
  <route id="r83" edges="1316035067#4 1316035067#5 1316035067#6 1316035067#7 1316035067#8" />
  <route id="r84" edges="174115288#3 174115288#4 588508386#2 588508386#3 588508386#4 857501633#2 1110911770 1111569811 57899745#0 57899745#1 57899745#2 422535909#0 422535909#1 422535909#2 573723837 738677099 -458156297#1 -458156297#0 458156297#0 458156297#1" />
  <route id="r85" edges="36852270#0 186242119#5 1111569811 1110911769 1110911773 203831004#0 203831004#1 203831004#2-AddedOnRampEdge 203831004#2 -315384816#1 -315384816#0 -545576576#1 -545576576#0 701823713#0 701823713#1 174115208 290617654#0 290617654#1" />
  <route id="r86" edges="290617654#0 290617654#1 509616556#0 509616556#2 545576577#0 545576577#1 545576577#2 588508386#1 588508386#2 588508386#3 588508386#4 857501633#2 1110911770 1111569811 57899745#0 57899745#1 1428288126#0 1428288126#1 1428288126#4 187372347" />
  <route id="r87" edges="108730141#2 57899744#4 515278525#0 515278525#1 515278525#1-AddedOffRampEdge 521254462#1 1110911773 1110911771 857501633#0 857501633#1 857501633#2 1110911770 1111569811 57899745#0 57899745#1 1428288126#0 1428288126#1 1428288126#4 -1428288126#4 -1428288126#1" />
  <route id="r88" edges="1110911771 857501633#0 857501633#1 857501633#2 1110911770 1111569811 1110911769 1110911773 203831004#0 203831004#1 203831004#2-AddedOnRampEdge 203831004#2 -315384816#1 -315384816#0 -545576576#1 -545576576#0 701823713#0 701823713#1 174115208 290617654#0" />
  <route id="r89" edges="700875020#2 700875020#3 700875020#4 700875020#5" />
  <route id="r90" edges="-315384816#1 -315384816#0 174115288#0 637416531 423032197#1 423032197#2 857501633#0 857501633#1 857501633#2 1110911770 1111569811 57899745#0 57899745#1 1428288126#0 1428288126#1 1428288126#4 -1428288126#4 -1428288126#1 -1428288126#0" />
  <route id="r91" edges="1059846340#1 458156311#1 57899744#1 57899744#2 57899744#3 57899744#4 515278525#0 515278525#1 515278525#1-AddedOffRampEdge 488663951 203831004#2-AddedOnRampEdge 203831004#2 -315384816#1 -315384816#0 -545576576#1 -545576576#0 701823713#0 701823713#1 174115208 290617654#0" />
  <route id="r92" edges="1349094941#1 1316035068#4 1316035068#6 1316035068#7 1316035068#8" />
  <route id="r93" edges="-1059846340#1 458156311#0 458156311#1 57899744#1 57899744#2 57899744#3 57899744#4 515278525#0 515278525#1 515278525#1-AddedOffRampEdge 488663951 203831004#2-AddedOnRampEdge 203831004#2 -315384816#1 -315384816#0 -545576576#1 -545576576#0 701823713#0 701823713#1 174115208" />
  <route id="r94" edges="509616555#4 509616555#6 509616555#7-AddedOnRampEdge 509616555#7 423032197#1 423032197#2 857501633#0 857501633#1 857501633#2 1110911770 1111569811 57899745#0 57899745#1 1428288126#0 1428288126#1 1428288126#4 -1428288126#4 -1428288126#1 -1428288126#0" />
  <route id="r95" edges="203831004#2-AddedOnRampEdge 203831004#2 509616555#6 509616555#7-AddedOnRampEdge 509616555#7 423032197#1 423032197#2 857501633#0 857501633#1 857501633#2 1110911770 1111569811 57899745#0 57899745#1 1428288126#0 1428288126#1 1428288126#4 -1428288126#4 -1428288126#1 -1428288126#0" />
  <route id="r96" edges="514228253 515278525#0 515278525#1 515278525#1-AddedOffRampEdge 521254462#1 1110911773 1110911771 857501633#0 857501633#1 857501633#2 1110911770 1111569811 57899745#0 57899745#1 1428288126#0 1428288126#1 1428288126#4 -1428288126#4 -1428288126#1 -1428288126#0" />
  <route id="r97" edges="459971378#0 105623002" />
  <route id="r98" edges="-1059846340#0 1059846340#0 458156311#0 458156311#1 57899744#1 57899744#2 57899744#3 57899744#4 422535915 1055761576#0 1055761576#1 1055761576#2 -714182864 714182863#0 714182863#1 203831004#9 423032199#1 203831009#0 203831009#1 203831009#2" />
  <route id="r99" edges="1055761576#1 1055761576#2 -714182864 714182863#0 714182863#1 315384815#0 315384815#1 174115288#0 637416531 423032197#1 423032197#2 857501633#0 857501633#1 857501633#2 1110911770 1111569811 57899745#0 57899745#1 1428288126#0 1428288126#1" />
  <route id="r100" edges="-458156311#0 1059846340#1 458156311#1 57899744#1 57899744#2 57899744#3 57899744#4 515278525#0 515278525#1 515278525#1-AddedOffRampEdge 488663951 203831004#2-AddedOnRampEdge 203831004#2 -315384816#1 -315384816#0 -545576576#1 -545576576#0 701823713#0 701823713#1 174115208" />
  <route id="r101" edges="1237191542#1 1237191541 -1237191542#0 588508392 215616069#0 215616069#1 215616069#2 515278525#0 515278525#1 515278525#1-AddedOffRampEdge 488663951 203831004#2-AddedOnRampEdge 203831004#2 -315384816#1 -315384816#0 -545576576#1 -545576576#0 701823713#0 701823713#1 174115208" />
  <route id="r102" edges="-44619018#1 44619018#1 44619018#2 392483369 -1070214755 573723859 -714182864 714182863#0 714182863#1 315384815#0 315384815#1 -545576576#1 545576577#0 545576577#1 545576577#2 588508386#1 588508386#2 588508386#3 857501632 583602961#1" />
  <route id="r103" edges="423032199#1 203831009#0 203831009#1 203831009#2 714182863#0 714182863#1 315384815#0 315384815#1 174115288#0 637416531 423032197#1 423032197#2 857501633#0 857501633#1 857501633#2 36852270#0 36852270#4 36852270#5-AddedOnRampEdge 36852270#5 36852270#6" />
  <route id="r104" edges="1131113875#0-AddedOffRampEdge 1131113875#1 186242119#5 1111569811 1110911769 1110911773 203831004#0 203831004#1 203831004#2-AddedOnRampEdge 203831004#2 -315384816#1 -315384816#0 -545576576#1 -545576576#0 701823713#0 701823713#1 174115208 290617654#0 290617654#1" />
  <route id="r105" edges="514228250#2 44619018#1 44619018#2 392483369 -1070214755 573723859 -714182864 714182863#0 714182863#1 315384815#0 315384815#1 -545576576#1 545576577#0 545576577#1 545576577#2 588508386#1 588508386#2 588508386#3 857501632 583602961#1" />
  <route id="r106" edges="-1238214134#1 -1238214134#0 174115288#4 588508386#2 588508386#3 588508386#4 857501633#2 1110911770 1111569811 57899745#0 57899745#1 57899745#2 422535909#0 422535909#1 422535909#2 573723837 738677099 -458156297#1 -458156297#0 458156297#0" />
  <route id="r107" edges="588508386#4 857501633#2 1110911770 1111569811 1110911769 1110911773 203831004#0 203831004#1 203831004#2-AddedOnRampEdge 203831004#2 -315384816#1 -315384816#0 -545576576#1 -545576576#0 701823713#0 701823713#1 174115208 290617654#0 290617654#1" />
  <route id="r108" edges="1059846340#0 458156311#0 458156311#1 57899744#1 57899744#2 57899744#3 57899744#4 515278525#0 515278525#1 515278525#1-AddedOffRampEdge 488663951 203831004#2-AddedOnRampEdge 203831004#2 -315384816#1 -315384816#0 -545576576#1 -545576576#0 701823713#0 701823713#1 174115208" />
  <route id="r109" edges="1131113875#1 186242119#5 1111569811 1110911769 1110911773 203831004#0 203831004#1 203831004#2-AddedOnRampEdge 203831004#2 -315384816#1 -315384816#0 -545576576#1 -545576576#0 701823713#0 701823713#1 174115208 290617654#0 290617654#1" />
  <route id="r110" edges="105623068#0 105623068#1 -105623068#1 -105623068#0 41830790#1 514228253 515278525#0 515278525#1 515278525#1-AddedOffRampEdge 521254462#1 1110911773 1110911771 857501633#0 857501633#1 857501633#2 36852270#0 36852270#4 36852270#5-AddedOnRampEdge 36852270#5 36852270#6" />
  <route id="r111" edges="-1428288129#0 -1059846340#2 458156311#1 57899744#1 57899744#2 57899744#3 57899744#4 515278525#0 515278525#1 515278525#1-AddedOffRampEdge 488663951 203831004#2-AddedOnRampEdge 203831004#2 -315384816#1 -315384816#0 -545576576#1 -545576576#0 701823713#0 701823713#1 174115208" />
  <route id="r112" edges="422535915 514228253 515278525#0 515278525#1 515278525#1-AddedOffRampEdge 521254462#1 1110911773 1110911771 857501633#0 857501633#1 857501633#2 1110911770 1111569811 57899745#0 57899745#1 1428288126#0 1428288126#1 1428288126#4 -1428288126#4 -1428288126#1" />
  <route id="r113" edges="458156297#1 738677097 588508392 215616069#0 215616069#1 215616069#2 515278525#0 515278525#1 515278525#1-AddedOffRampEdge 488663951 203831004#2-AddedOnRampEdge 203831004#2 -315384816#1 -315384816#0 -545576576#1 -545576576#0 701823713#0 701823713#1 174115208 290617654#0" />
  <route id="r114" edges="459971384#0 459971384#1 459971384#2" />
  <route id="r115" edges="57899744#4 515278525#0 515278525#1 515278525#1-AddedOffRampEdge 521254462#1 1110911773 1110911771 857501633#0 857501633#1 857501633#2 1110911770 1111569811 57899745#0 57899745#1 1428288126#0 1428288126#1 1428288126#4 -1428288126#4 -1428288126#1 -1428288126#0" />
  <route id="r116" edges="392491110 1029647112#2 1029647113 1029647112#4 573723838 -578812425#1 57899744#4 515278525#0 515278525#1 515278525#1-AddedOffRampEdge 488663951 203831004#2-AddedOnRampEdge 203831004#2 -315384816#1 -315384816#0 -545576576#1 -545576576#0 701823713#0 701823713#1 174115208" />
  <route id="r117" edges="588508370 545576577#1 545576577#2 588508386#1 588508386#2 588508386#3 588508386#4 857501633#2 1110911770 1111569811 57899745#0 57899745#1 57899745#2 422535909#0 422535909#1 422535909#2 573723837 738677099 -458156297#1 -458156297#0" />