<?xml version="1.0" encoding="UTF-8"?>

<!-- generated on 2026-06-10 10:39:12 by Eclipse SUMO netconvert Version 1.12.0
<configuration xmlns:xsi="http://www.w3.org/2001/XMLSchema-instance" xsi:noNamespaceSchemaLocation="http://sumo.dlr.de/xsd/netconvertConfiguration.xsd">

    <input>
        <osm-files value="/tmp/sumo_20260610_103903_2spomd_p/zone.osm"/>
    </input>

    <output>
        <output-file value="/tmp/sumo_20260610_103903_2spomd_p/generated.net.xml"/>
    </output>

    <projection>
        <proj.utm value="true"/>
    </projection>

    <processing>
        <geometry.remove value="true"/>
        <roundabouts.guess value="true"/>
    </processing>

    <tls_building>
        <tls.guess-signals value="true"/>
    </tls_building>

    <ramp_guessing>
        <ramps.guess value="true"/>
    </ramp_guessing>

    <junctions>
        <junctions.join value="true"/>
    </junctions>

    <report>
        <no-warnings value="true"/>
        <aggregate-warnings value="5"/>
    </report>

</configuration>
-->

<net version="1.9" junctionCornerDetail="5" limitTurnSpeed="5.50" xmlns:xsi="http://www.w3.org/2001/XMLSchema-instance" xsi:noNamespaceSchemaLocation="http://sumo.dlr.de/xsd/net_file.xsd">

    <location netOffset="-627525.05,-3714222.29" convBoundary="0.00,0.00,3780.73,5221.89" origBoundary="-7.626018,33.559694,-7.584878,33.607105" projParameter="+proj=utm +zone=29 +ellps=WGS84 +datum=WGS84 +units=m +no_defs"/>

    <type id="highway.bridleway" priority="1" numLanes="1" speed="2.78" allow="pedestrian" oneway="1" width="2.00"/>
    <type id="highway.bus_guideway" priority="1" numLanes="1" speed="27.78" allow="bus" oneway="1"/>
    <type id="highway.cycleway" priority="1" numLanes="1" speed="8.33" allow="bicycle" oneway="0" width="1.00"/>
    <type id="highway.footway" priority="1" numLanes="1" speed="2.78" allow="pedestrian" oneway="1" width="2.00"/>
    <type id="highway.ford" priority="1" numLanes="1" speed="2.78" allow="army" oneway="0"/>
    <type id="highway.living_street" priority="2" numLanes="1" speed="2.78" disallow="tram rail_urban rail rail_electric rail_fast ship" oneway="0"/>
    <type id="highway.motorway" priority="14" numLanes="2" speed="39.44" allow="private emergency authority army vip passenger hov taxi bus coach delivery truck trailer motorcycle evehicle custom1 custom2" oneway="1"/>
    <type id="highway.motorway_link" priority="9" numLanes="1" speed="22.22" allow="private emergency authority army vip passenger hov taxi bus coach delivery truck trailer motorcycle evehicle custom1 custom2" oneway="1"/>
    <type id="highway.path" priority="1" numLanes="1" speed="2.78" allow="pedestrian bicycle" oneway="0" width="2.00"/>
    <type id="highway.pedestrian" priority="1" numLanes="1" speed="2.78" allow="pedestrian" oneway="1" width="2.00"/>
    <type id="highway.primary" priority="12" numLanes="2" speed="27.78" disallow="tram rail_urban rail rail_electric rail_fast ship" oneway="0"/>
    <type id="highway.primary_link" priority="7" numLanes="1" speed="22.22" disallow="tram rail_urban rail rail_electric rail_fast ship" oneway="0"/>
    <type id="highway.raceway" priority="15" numLanes="2" speed="83.33" allow="vip" oneway="0"/>
    <type id="highway.residential" priority="3" numLanes="1" speed="13.89" disallow="tram rail_urban rail rail_electric rail_fast ship" oneway="0"/>
    <type id="highway.secondary" priority="11" numLanes="1" speed="27.78" disallow="tram rail_urban rail rail_electric rail_fast ship" oneway="0"/>
    <type id="highway.secondary_link" priority="6" numLanes="1" speed="22.22" disallow="tram rail_urban rail rail_electric rail_fast ship" oneway="0"/>
    <type id="highway.service" priority="1" numLanes="1" speed="5.56" allow="pedestrian delivery bicycle" oneway="0"/>
    <type id="highway.stairs" priority="1" numLanes="1" speed="1.39" allow="pedestrian" oneway="1" width="2.00"/>
    <type id="highway.step" priority="1" numLanes="1" speed="1.39" allow="pedestrian" oneway="1" width="2.00"/>
    <type id="highway.steps" priority="1" numLanes="1" speed="1.39" allow="pedestrian" oneway="1" width="2.00"/>
    <type id="highway.tertiary" priority="10" numLanes="1" speed="22.22" disallow="tram rail_urban rail rail_electric rail_fast ship" oneway="0"/>
    <type id="highway.tertiary_link" priority="5" numLanes="1" speed="22.22" disallow="tram rail_urban rail rail_electric rail_fast ship" oneway="0"/>
    <type id="highway.track" priority="1" numLanes="1" speed="5.56" allow="pedestrian motorcycle moped bicycle" oneway="0"/>
    <type id="highway.trunk" priority="13" numLanes="2" speed="27.78" disallow="pedestrian bicycle tram rail_urban rail rail_electric rail_fast ship" oneway="0"/>
    <type id="highway.trunk_link" priority="8" numLanes="1" speed="22.22" disallow="pedestrian bicycle tram rail_urban rail rail_electric rail_fast ship" oneway="0"/>
    <type id="highway.unclassified" priority="4" numLanes="1" speed="13.89" disallow="tram rail_urban rail rail_electric rail_fast ship" oneway="0"/>
    <type id="highway.unsurfaced" priority="1" numLanes="1" speed="8.33" disallow="tram rail_urban rail rail_electric rail_fast ship" oneway="0"/>
    <type id="railway.highspeed" priority="21" numLanes="1" speed="69.44" allow="rail_fast" oneway="1"/>
    <type id="railway.light_rail" priority="19" numLanes="1" speed="27.78" allow="rail_urban" oneway="1"/>
    <type id="railway.preserved" priority="16" numLanes="1" speed="27.78" allow="rail" oneway="1"/>
    <type id="railway.rail" priority="20" numLanes="1" speed="44.44" allow="rail" oneway="1"/>
    <type id="railway.subway" priority="18" numLanes="1" speed="27.78" allow="rail_urban" oneway="1"/>
    <type id="railway.tram" priority="17" numLanes="1" speed="13.89" allow="tram" oneway="1"/>

    <edge id=":10127117821_0" function="internal">
        <lane id=":10127117821_0_0" index="0" allow="tram" speed="13.89" length="5.45" shape="1565.16,3762.58 1564.85,3764.16 1564.76,3765.26 1564.75,3766.38 1564.67,3767.99"/>
    </edge>
    <edge id=":10127117821_1" function="internal">
        <lane id=":10127117821_1_0" index="0" allow="tram" speed="13.89" length="5.21" shape="1563.58,3764.76 1568.66,3763.62"/>
    </edge>
    <edge id=":10127117822_0" function="internal">
        <lane id=":10127117822_0_0" index="0" allow="tram" speed="7.62" length="4.93" shape="1569.05,3759.70 1567.53,3760.16 1566.39,3760.77 1565.61,3761.51 1565.20,3762.39"/>
    </edge>
    <edge id=":10127117822_1" function="internal">
        <lane id=":10127117822_1_0" index="0" allow="tram" speed="13.89" length="5.21" shape="1569.05,3759.70 1563.98,3760.88"/>
    </edge>
    <edge id=":10127117822_2" function="internal">
        <lane id=":10127117822_2_0" index="0" allow="tram" speed="13.89" length="5.43" shape="1565.65,3756.99 1565.54,3758.60 1565.55,3759.71 1565.49,3760.81 1565.20,3762.39"/>
    </edge>
    <edge id=":10127117822_3" function="internal">
        <lane id=":10127117822_3_0" index="0" allow="tram" speed="6.60" length="4.42" shape="1565.65,3756.99 1565.40,3758.58 1565.04,3759.76 1564.56,3760.52 1563.98,3760.88"/>
    </edge>
    <edge id=":10127117880_0" function="internal">
        <lane id=":10127117880_0_0" index="0" allow="tram" speed="13.89" length="2.82" shape="1394.67,4225.19 1397.49,4225.14"/>
    </edge>
    <edge id=":10127117880_1" function="internal">
        <lane id=":10127117880_1_0" index="0" allow="tram" speed="13.89" length="2.79" shape="1394.72,4225.46 1395.54,4225.32 1396.10,4225.23 1396.66,4225.18 1397.49,4225.14"/>
    </edge>
    <edge id=":10127117898_0" function="internal">
        <lane id=":10127117898_0_0" index="0" allow="tram" speed="13.89" length="5.14" shape="1562.18,3768.42 1562.20,3763.29"/>
    </edge>
    <edge id=":10127117898_1" function="internal">
        <lane id=":10127117898_1_0" index="0" allow="tram" speed="6.16" length="3.96" shape="1562.18,3768.42 1562.27,3767.47 1562.45,3766.33 1562.80,3765.33 1563.39,3764.81"/>
    </edge>
    <edge id=":10127117898_2" function="internal">
        <lane id=":10127117898_2_0" index="0" allow="tram" speed="6.61" length="4.55" shape="1558.78,3765.85 1560.21,3765.41 1561.25,3764.84 1561.92,3764.13 1562.20,3763.29"/>
    </edge>
    <edge id=":10127117898_3" function="internal">
        <lane id=":10127117898_3_0" index="0" allow="tram" speed="13.89" length="4.72" shape="1558.78,3765.85 1563.39,3764.81"/>
    </edge>
    <edge id=":10127117899_0" function="internal">
        <lane id=":10127117899_0_0" index="0" allow="tram" speed="13.89" length="5.15" shape="1563.78,3760.92 1558.77,3762.09"/>
    </edge>
    <edge id=":10127117899_1" function="internal">
        <lane id=":10127117899_1_0" index="0" allow="tram" speed="13.89" length="5.62" shape="1562.22,3763.09 1562.84,3757.50"/>
    </edge>
    <edge id=":10992011541_0" function="internal">
        <lane id=":10992011541_0_0" index="0" disallow="tram rail_urban rail rail_electric rail_fast ship" speed="6.61" length="8.68" shape="1508.88,4074.52 1511.18,4075.23 1513.19,4075.11 1514.91,4074.15 1516.33,4072.36"/>
    </edge>
    <edge id=":10992011541_1" function="internal">
        <lane id=":10992011541_1_0" index="0" disallow="tram rail_urban rail rail_electric rail_fast ship" speed="22.22" length="10.20" shape="1511.24,4081.20 1516.33,4072.36"/>
    </edge>
    <edge id=":1131113875#0-AddedOffRampNode_0" function="internal">
        <lane id=":1131113875#0-AddedOffRampNode_0_0" index="0" disallow="tram rail_urban rail rail_electric rail_fast ship" speed="22.22" length="8.27" shape="1552.87,3946.74 1553.11,3949.24 1554.04,3950.89 1554.97,3952.53 1555.20,3955.04"/>
        <lane id=":1131113875#0-AddedOffRampNode_0_1" index="1" disallow="tram rail_urban rail rail_electric rail_fast ship" speed="22.22" length="8.27" shape="1552.87,3946.74 1552.02,3954.69"/>
        <lane id=":1131113875#0-AddedOffRampNode_0_2" index="2" disallow="tram rail_urban rail rail_electric rail_fast ship" speed="22.22" length="8.27" shape="1549.69,3946.40 1548.84,3954.35"/>
    </edge>
    <edge id=":11477725250_0" function="internal">
        <lane id=":11477725250_0_0" index="0" allow="pedestrian delivery bicycle" speed="3.65" length="4.67" shape="1349.67,4194.56 1349.31,4195.96 1348.69,4196.61 1347.81,4196.49 1346.65,4195.63"/>
    </edge>
    <edge id=":11490997606_0" function="internal">
        <lane id=":11490997606_0_0" index="0" allow="pedestrian delivery bicycle" speed="4.94" length="5.13" shape="1267.72,4466.56 1266.42,4465.99 1265.28,4466.00 1264.31,4466.60 1263.51,4467.78"/>
    </edge>
    <edge id=":11490997606_1" function="internal">
        <lane id=":11490997606_1_0" index="0" allow="pedestrian delivery bicycle" speed="5.56" length="10.22" shape="1267.72,4466.56 1265.47,4464.73 1264.22,4462.68 1263.98,4460.40 1264.75,4457.89"/>
    </edge>
    <edge id=":11490997606_2" function="internal">
        <lane id=":11490997606_2_0" index="0" allow="pedestrian delivery bicycle" speed="3.65" length="4.67" shape="1267.72,4466.56 1267.13,4465.25 1267.21,4464.35 1267.97,4463.89 1269.41,4463.84"/>
    </edge>
    <edge id=":11490997606_3" function="internal">
        <lane id=":11490997606_3_0" index="0" allow="pedestrian delivery bicycle" speed="5.41" length="5.44" shape="1267.63,4459.29 1267.26,4460.57 1267.43,4461.75 1268.15,4462.84 1269.41,4463.84"/>
    </edge>
    <edge id=":11490997606_4" function="internal">
        <lane id=":11490997606_4_0" index="0" allow="pedestrian delivery bicycle" speed="5.56" length="9.43" shape="1267.63,4459.29 1263.51,4467.78"/>
    </edge>
    <edge id=":11490997606_5" function="internal">
        <lane id=":11490997606_5_0" index="0" allow="pedestrian delivery bicycle" speed="3.65" length="4.67" shape="1267.63,4459.29 1266.39,4460.02 1265.49,4460.03 1264.95,4459.32 1264.75,4457.89"/>
    </edge>
    <edge id=":11490997606_6" function="internal">
        <lane id=":11490997606_6_0" index="0" allow="pedestrian delivery bicycle" speed="5.56" length="9.43" shape="1260.63,4466.38 1264.75,4457.89"/>
    </edge>
    <edge id=":11490997606_7" function="internal">
        <lane id=":11490997606_7_0" index="0" allow="pedestrian delivery bicycle" speed="5.56" length="10.69" shape="1260.63,4466.38 1262.30,4463.92 1264.32,4462.67 1266.69,4462.65 1269.41,4463.84"/>
    </edge>
    <edge id=":11490997606_8" function="internal">
        <lane id=":11490997606_8_0" index="0" allow="pedestrian delivery bicycle" speed="3.65" length="4.67" shape="1260.63,4466.38 1261.88,4465.65 1262.77,4465.64 1263.32,4466.35 1263.51,4467.78"/>
    </edge>
    <edge id=":11490997611_0" function="internal">
        <lane id=":11490997611_0_0" index="0" allow="pedestrian delivery bicycle" speed="4.11" length="1.42" shape="1275.22,4449.51 1274.90,4449.34 1274.56,4449.25 1274.22,4449.25 1273.86,4449.32"/>
    </edge>
    <edge id=":11490997611_1" function="internal">
        <lane id=":11490997611_1_0" index="0" allow="pedestrian delivery bicycle" speed="5.56" length="4.25" shape="1272.90,4446.27 1273.97,4446.05 1275.01,4446.07 1276.01,4446.33 1276.98,4446.83"/>
    </edge>
    <edge id=":1216327800_0" function="internal">
        <lane id=":1216327800_0_0" index="0" disallow="tram rail_urban rail rail_electric rail_fast ship" speed="3.65" length="4.67" shape="1702.51,4294.52 1703.69,4295.36 1704.06,4296.17 1703.64,4296.95 1702.42,4297.72"/>
    </edge>
    <edge id=":1216327836_0" function="internal">
        <lane id=":1216327836_0_0" index="0" allow="pedestrian delivery bicycle" speed="3.65" length="4.67" shape="761.30,4454.65 759.87,4454.46 759.16,4453.91 759.17,4453.02 759.89,4451.77"/>
    </edge>
    <edge id=":1216327960_0" function="internal">
        <lane id=":1216327960_0_0" index="0" disallow="tram rail_urban rail rail_electric rail_fast ship" speed="2.78" length="15.10" shape="903.75,4439.89 900.28,4441.35 896.74,4442.70 893.16,4443.92 889.55,4445.00"/>
    </edge>
    <edge id=":1216327960_1" function="internal">
        <lane id=":1216327960_1_0" index="0" disallow="tram rail_urban rail rail_electric rail_fast ship" speed="2.78" length="14.69" shape="903.75,4439.89 899.80,4440.99 896.59,4440.49 894.13,4438.38 892.40,4434.66"/>
    </edge>
    <edge id=":1216327960_2" function="internal">
        <lane id=":1216327960_2_0" index="0" disallow="tram rail_urban rail rail_electric rail_fast ship" speed="2.78" length="4.67" shape="903.75,4439.89 902.33,4439.64 901.64,4439.07 901.68,4438.18 902.45,4436.96"/>
    </edge>
    <edge id=":1216327960_3" function="internal">
        <lane id=":1216327960_3_0" index="0" disallow="tram rail_urban rail rail_electric rail_fast ship" speed="2.78" length="9.05" shape="895.47,4433.74 896.53,4436.03 898.05,4437.33 900.02,4437.64 902.45,4436.96"/>
    </edge>
    <edge id=":1216327960_4" function="internal">
        <lane id=":1216327960_4_0" index="0" disallow="tram rail_urban rail rail_electric rail_fast ship" speed="2.78" length="14.56" shape="895.47,4433.74 896.09,4437.77 895.32,4440.99 893.13,4443.40 889.55,4445.00"/>
    </edge>
    <edge id=":1216327960_5" function="internal">
        <lane id=":1216327960_5_0" index="0" disallow="tram rail_urban rail rail_electric rail_fast ship" speed="2.78" length="4.67" shape="895.47,4433.74 895.04,4435.12 894.39,4435.73 893.51,4435.58 892.40,4434.66"/>
    </edge>
    <edge id=":1216327960_6" function="internal">
        <lane id=":1216327960_6_0" index="0" disallow="tram rail_urban rail rail_electric rail_fast ship" speed="2.78" length="9.33" shape="888.69,4441.91 890.96,4440.90 892.33,4439.35 892.81,4437.27 892.40,4434.66"/>
    </edge>
    <edge id=":1216327960_7" function="internal">
        <lane id=":1216327960_7_0" index="0" disallow="tram rail_urban rail rail_electric rail_fast ship" speed="2.78" length="14.64" shape="888.69,4441.91 892.23,4440.86 895.66,4439.69 899.05,4438.40 902.45,4436.96"/>
    </edge>
    <edge id=":1216327960_8" function="internal">
        <lane id=":1216327960_8_0" index="0" disallow="tram rail_urban rail rail_electric rail_fast ship" speed="2.78" length="4.67" shape="888.69,4441.91 890.06,4442.36 890.66,4443.03 890.49,4443.91 889.55,4445.00"/>
    </edge>
    <edge id=":1216328025_0" function="internal">
        <lane id=":1216328025_0_0" index="0" allow="rail rail_electric rail_fast" speed="44.44" length="43.04" shape="1700.02,4238.69 1658.51,4250.06"/>
    </edge>
    <edge id=":1216328025_1" function="internal">
        <lane id=":1216328025_1_0" index="0" allow="rail rail_electric rail_fast" speed="44.44" length="43.04" shape="1700.02,4238.69 1657.76,4246.87"/>
    </edge>
    <edge id=":1216328094_0" function="internal">
        <lane id=":1216328094_0_0" index="0" disallow="tram rail_urban rail rail_electric rail_fast ship" speed="6.53" length="8.32" shape="936.51,4349.63 934.81,4348.16 933.00,4347.53 931.10,4347.72 929.10,4348.74"/>
    </edge>
    <edge id=":1216328094_1" function="internal">
        <lane id=":1216328094_1_0" index="0" disallow="tram rail_urban rail rail_electric rail_fast ship" speed="8.51" length="12.84" shape="936.51,4349.63 934.54,4346.74 933.70,4343.81 933.99,4340.84 935.40,4337.83"/>
    </edge>
    <edge id=":1216328094_2" function="internal">
        <lane id=":1216328094_2_0" index="0" disallow="tram rail_urban rail rail_electric rail_fast ship" speed="3.65" length="4.67" shape="936.51,4349.63 936.32,4348.20 936.65,4347.37 937.52,4347.14 938.91,4347.51"/>
    </edge>
    <edge id=":1216328094_3" function="internal">
        <lane id=":1216328094_3_0" index="0" disallow="tram rail_urban rail rail_electric rail_fast ship" speed="7.08" length="8.64" shape="938.08,4339.58 937.15,4341.58 936.98,4343.57 937.57,4345.55 938.91,4347.51"/>
    </edge>
    <edge id=":1216328094_4" function="internal">
        <lane id=":1216328094_4_0" index="0" disallow="tram rail_urban rail rail_electric rail_fast ship" speed="13.89" length="12.92" shape="938.08,4339.58 936.10,4342.38 934.10,4344.66 931.85,4346.69 929.10,4348.74"/>
    </edge>
    <edge id=":1216328094_5" function="internal">
        <lane id=":1216328094_5_0" index="0" disallow="tram rail_urban rail rail_electric rail_fast ship" speed="3.65" length="1.44" shape="938.08,4339.58 936.75,4340.15"/>
    </edge>
    <edge id=":1216328094_9" function="internal">
        <lane id=":1216328094_9_0" index="0" disallow="tram rail_urban rail rail_electric rail_fast ship" speed="3.65" length="3.23" shape="936.75,4340.15 935.87,4340.05 935.41,4339.28 935.40,4337.83"/>
    </edge>
    <edge id=":1216328094_6" function="internal">
        <lane id=":1216328094_6_0" index="0" disallow="tram rail_urban rail rail_electric rail_fast ship" speed="13.89" length="11.71" shape="927.27,4346.12 929.88,4344.20 931.84,4342.47 933.55,4340.49 935.40,4337.83"/>
    </edge>
    <edge id=":1216328094_7" function="internal">
        <lane id=":1216328094_7_0" index="0" disallow="tram rail_urban rail rail_electric rail_fast ship" speed="8.03" length="3.53" shape="927.27,4346.12 930.41,4344.51"/>
    </edge>
    <edge id=":1216328094_8" function="internal">
        <lane id=":1216328094_8_0" index="0" disallow="tram rail_urban rail rail_electric rail_fast ship" speed="3.65" length="1.44" shape="927.27,4346.12 928.71,4346.08"/>
    </edge>
    <edge id=":1216328094_10" function="internal">
        <lane id=":1216328094_10_0" index="0" disallow="tram rail_urban rail rail_electric rail_fast ship" speed="8.03" length="9.54" shape="930.41,4344.51 933.40,4344.21 936.23,4345.21 938.91,4347.51"/>
    </edge>
    <edge id=":1216328094_11" function="internal">
        <lane id=":1216328094_11_0" index="0" disallow="tram rail_urban rail rail_electric rail_fast ship" speed="3.65" length="3.23" shape="928.71,4346.08 929.49,4346.51 929.62,4347.40 929.10,4348.74"/>
    </edge>
    <edge id=":1216328303_0" function="internal">
        <lane id=":1216328303_0_0" index="0" disallow="tram rail_urban rail rail_electric rail_fast ship" speed="13.89" length="46.48" shape="1597.55,4303.19 1587.52,4303.76 1574.45,4304.88 1561.40,4306.16 1551.40,4307.22"/>
        <lane id=":1216328303_0_1" index="1" disallow="tram rail_urban rail rail_electric rail_fast ship" speed="13.89" length="46.48" shape="1597.48,4299.99 1587.40,4300.57 1574.24,4301.69 1561.09,4302.97 1551.05,4304.04"/>
    </edge>
    <edge id=":1216328303_2" function="internal">
        <lane id=":1216328303_2_0" index="0" disallow="tram rail_urban rail rail_electric rail_fast ship" speed="13.89" length="47.04" shape="1550.33,4297.68 1560.46,4296.61 1573.81,4295.31 1587.17,4294.17 1597.33,4293.60"/>
        <lane id=":1216328303_2_1" index="1" disallow="tram rail_urban rail rail_electric rail_fast ship" speed="13.89" length="47.04" shape="1550.69,4300.86 1560.78,4299.79 1574.02,4298.50 1587.29,4297.37 1597.41,4296.79"/>
    </edge>
    <edge id=":1216328303_4" function="internal">
        <lane id=":1216328303_4_0" index="0" allow="rail" speed="44.44" length="48.54" shape="1552.46,4311.23 1560.33,4306.97 1574.19,4300.48 1588.08,4294.02 1596.02,4289.85"/>
    </edge>
    <edge id=":1216328348_0" function="internal">
        <lane id=":1216328348_0_0" index="0" allow="pedestrian delivery bicycle" speed="4.86" length="5.24" shape="781.60,4448.44 781.01,4447.08 780.15,4446.33 779.01,4446.18 777.61,4446.64"/>
    </edge>
    <edge id=":1216328348_1" function="internal">
        <lane id=":1216328348_1_0" index="0" allow="pedestrian delivery bicycle" speed="8.42" length="9.66" shape="781.60,4448.44 781.06,4445.58 781.11,4443.12 781.76,4441.03 783.00,4439.32"/>
    </edge>
    <edge id=":1216328348_2" function="internal">
        <lane id=":1216328348_2_0" index="0" disallow="tram rail_urban rail rail_electric rail_fast ship" speed="3.65" length="4.67" shape="781.60,4448.44 782.05,4447.07 782.72,4446.47 783.60,4446.64 784.68,4447.59"/>
    </edge>
    <edge id=":1216328348_3" function="internal">
        <lane id=":1216328348_3_0" index="0" allow="pedestrian delivery bicycle" speed="6.90" length="6.28" shape="785.25,4441.60 784.56,4442.62 784.24,4443.96 784.28,4445.61 784.68,4447.59"/>
    </edge>
    <edge id=":1216328348_4" function="internal">
        <lane id=":1216328348_4_0" index="0" allow="pedestrian delivery bicycle" speed="5.56" length="9.22" shape="785.25,4441.60 783.26,4443.46 781.75,4444.57 780.07,4445.45 777.61,4446.64"/>
    </edge>
    <edge id=":1216328348_5" function="internal">
        <lane id=":1216328348_5_0" index="0" allow="pedestrian delivery bicycle" speed="3.65" length="4.67" shape="785.25,4441.60 783.83,4441.88 782.99,4441.59 782.71,4440.74 783.00,4439.32"/>
    </edge>
    <edge id=":1216328348_6" function="internal">
        <lane id=":1216328348_6_0" index="0" allow="pedestrian delivery bicycle" speed="5.56" length="8.19" shape="776.20,4443.77 778.39,4442.72 779.88,4441.94 781.23,4440.97 783.00,4439.32"/>
    </edge>
    <edge id=":1216328348_7" function="internal">
        <lane id=":1216328348_7_0" index="0" allow="pedestrian delivery bicycle" speed="6.73" length="11.15" shape="776.20,4443.77 779.18,4442.80 781.60,4443.11 783.43,4444.71 784.68,4447.59"/>
    </edge>
    <edge id=":1216328348_8" function="internal">
        <lane id=":1216328348_8_0" index="0" allow="pedestrian delivery bicycle" speed="3.65" length="4.67" shape="776.20,4443.77 777.63,4443.95 778.34,4444.50 778.33,4445.39 777.61,4446.64"/>
    </edge>
    <edge id=":1216328506_0" function="internal">
        <lane id=":1216328506_0_0" index="0" disallow="tram rail_urban rail rail_electric rail_fast ship" speed="13.89" length="10.14" shape="1236.82,4488.51 1236.36,4491.37 1236.53,4493.39 1236.79,4495.43 1236.58,4498.34"/>
        <lane id=":1216328506_0_1" index="1" disallow="tram rail_urban rail rail_electric rail_fast ship" speed="13.89" length="10.14" shape="1233.73,4487.68 1233.23,4490.67 1233.39,4492.80 1233.63,4494.93 1233.39,4497.99"/>
    </edge>
    <edge id=":1216328506_2" function="internal">
        <lane id=":1216328506_2_0" index="0" disallow="tram rail_urban rail rail_electric rail_fast ship" speed="3.65" length="1.34" shape="1233.73,4487.68 1232.72,4488.56"/>
    </edge>
    <edge id=":1216328506_8" function="internal">
        <lane id=":1216328506_8_0" index="0" disallow="tram rail_urban rail rail_electric rail_fast ship" speed="3.65" length="3.33" shape="1232.72,4488.56 1232.64,4488.63 1231.76,4488.81 1231.10,4488.21 1230.64,4486.84"/>
    </edge>
    <edge id=":1216328506_3" function="internal">
        <lane id=":1216328506_3_0" index="0" disallow="tram rail_urban rail rail_electric rail_fast ship" speed="13.89" length="10.86" shape="1222.32,4495.37 1224.26,4492.99 1225.58,4491.17 1226.58,4489.11 1227.55,4486.01"/>
    </edge>
    <edge id=":1216328506_4" function="internal">
        <lane id=":1216328506_4_0" index="0" disallow="tram rail_urban rail rail_electric rail_fast ship" speed="6.34" length="15.48" shape="1222.32,4495.37 1225.87,4492.83 1229.75,4492.50 1232.68,4494.26 1233.39,4497.99"/>
    </edge>
    <edge id=":1216328506_5" function="internal">
        <lane id=":1216328506_5_0" index="0" disallow="tram rail_urban rail rail_electric rail_fast ship" speed="13.89" length="11.10" shape="1227.02,4497.27 1227.31,4493.94 1227.10,4491.60 1226.98,4489.28 1227.55,4486.01"/>
        <lane id=":1216328506_5_1" index="1" disallow="tram rail_urban rail rail_electric rail_fast ship" speed="13.89" length="11.10" shape="1230.20,4497.63 1230.47,4494.44 1230.24,4492.20 1230.11,4489.98 1230.64,4486.84"/>
    </edge>
    <edge id=":1216328506_7" function="internal">
        <lane id=":1216328506_7_0" index="0" disallow="tram rail_urban rail rail_electric rail_fast ship" speed="3.65" length="1.45" shape="1230.20,4497.63 1231.13,4496.53"/>
    </edge>
    <edge id=":1216328506_9" function="internal">
        <lane id=":1216328506_9_0" index="0" disallow="tram rail_urban rail rail_electric rail_fast ship" speed="3.65" length="3.24" shape="1231.13,4496.53 1231.97,4496.22 1232.73,4496.70 1233.39,4497.99"/>
    </edge>
    <edge id=":1216328929_0" function="internal">
        <lane id=":1216328929_0_0" index="0" disallow="tram rail_urban rail rail_electric rail_fast ship" speed="6.76" length="9.44" shape="982.41,4341.16 984.44,4342.91 986.50,4343.66 988.60,4343.42 990.72,4342.18"/>
    </edge>
    <edge id=":1216328929_1" function="internal">
        <lane id=":1216328929_1_0" index="0" disallow="tram rail_urban rail rail_electric rail_fast ship" speed="3.65" length="1.44" shape="982.41,4341.16 982.62,4342.59"/>
    </edge>
    <edge id=":1216328929_4" function="internal">
        <lane id=":1216328929_4_0" index="0" disallow="tram rail_urban rail rail_electric rail_fast ship" speed="3.65" length="3.23" shape="982.62,4342.59 982.29,4343.42 981.43,4343.66 980.03,4343.30"/>
    </edge>
    <edge id=":1216328929_2" function="internal">
        <lane id=":1216328929_2_0" index="0" disallow="tram rail_urban rail rail_electric rail_fast ship" speed="6.29" length="9.04" shape="979.20,4350.98 981.01,4349.24 981.75,4347.37 981.42,4345.39 980.03,4343.30"/>
    </edge>
    <edge id=":1216328929_3" function="internal">
        <lane id=":1216328929_3_0" index="0" disallow="tram rail_urban rail rail_electric rail_fast ship" speed="13.89" length="14.50" shape="979.20,4350.98 990.72,4342.18"/>
    </edge>
    <edge id=":1216329082_0" function="internal">
        <lane id=":1216329082_0_0" index="0" disallow="tram rail_urban rail rail_electric rail_fast ship" speed="13.89" length="9.19" shape="966.51,4328.19 960.23,4321.48"/>
    </edge>
    <edge id=":1216329082_1" function="internal">
        <lane id=":1216329082_1_0" index="0" allow="pedestrian delivery bicycle" speed="6.81" length="3.19" shape="966.51,4328.19 964.90,4325.77 964.85,4325.48"/>
    </edge>
    <edge id=":1216329082_7" function="internal">
        <lane id=":1216329082_7_0" index="0" allow="pedestrian delivery bicycle" speed="6.81" length="7.31" shape="964.85,4325.48 964.50,4323.46 965.31,4321.25 967.32,4319.16"/>
    </edge>
    <edge id=":1216329082_2" function="internal">
        <lane id=":1216329082_2_0" index="0" allow="pedestrian delivery bicycle" speed="4.97" length="5.08" shape="969.29,4321.68 968.31,4322.70 967.92,4323.76 968.12,4324.88 968.89,4326.05"/>
    </edge>
    <edge id=":1216329082_3" function="internal">
        <lane id=":1216329082_3_0" index="0" allow="pedestrian delivery bicycle" speed="7.14" length="10.08" shape="969.29,4321.68 966.84,4323.13 964.52,4323.58 962.31,4323.03 960.23,4321.48"/>
    </edge>
    <edge id=":1216329082_4" function="internal">
        <lane id=":1216329082_4_0" index="0" allow="pedestrian delivery bicycle" speed="3.65" length="4.67" shape="969.29,4321.68 967.85,4321.79 967.04,4321.41 966.86,4320.53 967.32,4319.16"/>
    </edge>
    <edge id=":1216329082_5" function="internal">
        <lane id=":1216329082_5_0" index="0" allow="pedestrian delivery bicycle" speed="5.39" length="5.35" shape="962.50,4319.23 963.57,4320.01 964.73,4320.25 965.98,4319.97 967.32,4319.16"/>
    </edge>
    <edge id=":1216329082_6" function="internal">
        <lane id=":1216329082_6_0" index="0" disallow="tram rail_urban rail rail_electric rail_fast ship" speed="13.89" length="9.35" shape="962.50,4319.23 968.89,4326.05"/>
    </edge>
    <edge id=":1216329100_0" function="internal">
        <lane id=":1216329100_0_0" index="0" disallow="tram rail_urban rail rail_electric rail_fast ship" speed="7.27" length="10.66" shape="951.56,4361.87 953.97,4364.09 956.33,4365.23 958.63,4365.27 960.86,4364.22"/>
    </edge>
    <edge id=":1216329100_1" function="internal">
        <lane id=":1216329100_1_0" index="0" disallow="tram rail_urban rail rail_electric rail_fast ship" speed="3.65" length="4.67" shape="951.56,4361.87 951.76,4363.30 951.42,4364.13 950.56,4364.36 949.16,4363.99"/>
    </edge>
    <edge id=":1216329100_2" function="internal">