<?xml version='1.0' encoding='utf-8'?>
<routes>
  <vType id="DEFAULT_VEHTYPE" accel="3.0" decel="6.0" maxSpeed="22.22" speedFactor="1.2" speedDev="0.1" sigma="0.3" length="4.5" minGap="1.5" tau="0.8" lcStrategic="1.0" lcCooperative="0.3" />
  <route id="r0" edges="-1107418953 -576463587#1 -576463587#0 740626380#2 1160182236 740626379#2 1424981855 1424981854#0 1424981854#1 740626378 630361560#0 30144037 630361579#1 486885259#1-AddedOnRampEdge 486885259#1" />
  <route id="r1" edges="-233821734#1 233821734#1 233821734#2 -630361561#0 740626379#0 740626379#2 1424981855 1424981854#0 1424981854#1 740626378 630361560#0 30144037 630361579#1 486885259#1-AddedOnRampEdge 486885259#1" />
  <route id="r2" edges="-483340085#5 -483340085#4 -483340085#3 -483340085#2 -483340085#1 740626379#2 1424981855 1424981854#0 1424981854#1 740626378 630361560#0 30144037 630361579#1 486885259#1-AddedOnRampEdge 486885259#1" />
  <route id="r3" edges="-725458818 548038461#1 740626377 740626377-AddedOffRampEdge 1424981849 1424981851 740626380#0 740626380#1 740626380#2 740626380#3 630361561#0 -1497303819 1493046460#0 1493046460#1 1493046460#2" />
  <route id="r4" edges="1424981847 1424981854#0 1424981854#1 740626378 630361560#0 630361560#1 548038460#1 548038460#2 548038460#3 548038460#4 548038460#5 548038461#0 548038461#1 740626377 740626377-AddedOffRampEdge" />
  <route id="r5" edges="154190805-AddedOffRampEdge 141366115 141366115-AddedOffRampEdge 1424981847 1424981854#0 1424981854#1 740626378 630361560#0 630361560#1 548038460#1 548038460#2 548038460#3 548038460#4 548038460#5 548038461#0" />
  <route id="r6" edges="233821742#2 233821734#1 233821734#2 -630361561#0 740626379#0 740626379#2 1424981855 1424981854#0 1424981854#1 740626378 630361560#0 30144037 630361579#1 486885259#1-AddedOnRampEdge 486885259#1" />
  <route id="r7" edges="483340096#1 -483340096#1 -483340096#0 740626379#2 1424981855 1424981854#0 1424981854#1 740626378 630361560#0 630361560#1 548038460#1 548038460#2 548038460#3 548038460#4 548038460#5" />
  <vehicle id="veh0" type="DEFAULT_VEHTYPE" route="r0" depart="0.0" speedFactor="1.2" />
  <vehicle id="veh1" type="DEFAULT_VEHTYPE" route="r1" depart="1.0" speedFactor="1.2" />
  <vehicle id="veh2" type="DEFAULT_VEHTYPE" route="r2" depart="2.0" speedFactor="1.2" />
  <vehicle id="veh3" type="DEFAULT_VEHTYPE" route="r3" depart="3.0" speedFactor="1.2" />
  <vehicle id="veh4" type="DEFAULT_VEHTYPE" route="r4" depart="4.0" speedFactor="1.2" />
  <vehicle id="veh5" type="DEFAULT_VEHTYPE" route="r5" depart="5.0" speedFactor="1.2" />
  <vehicle id="veh6" type="DEFAULT_VEHTYPE" route="r6" depart="6.0" speedFactor="1.2" />
  <vehicle id="veh7" type="DEFAULT_VEHTYPE" route="r7" depart="7.0" speedFactor="1.2" />
  <vehicle id="veh8" type="DEFAULT_VEHTYPE" route="r0" depart="8.0" speedFactor="1.2" />
  <vehicle id="veh9" type="DEFAULT_VEHTYPE" route="r1" depart="9.0" speedFactor="1.2" />
  <vehicle id="veh10" type="DEFAULT_VEHTYPE" route="r2" depart="10.0" speedFactor="1.2" />
  <vehicle id="veh11" type="DEFAULT_VEHTYPE" route="r3" depart="11.0" speedFactor="1.2" />
  <vehicle id="veh12" type="DEFAULT_VEHTYPE" route="r4" depart="12.0" speedFactor="1.2" />
  <vehicle id="veh13" type="DEFAULT_VEHTYPE" route="r5" depart="13.0" speedFactor="1.2" />
  <vehicle id="veh14" type="DEFAULT_VEHTYPE" route="r6" depart="14.0" speedFactor="1.2" />
  <vehicle id="veh15" type="DEFAULT_VEHTYPE" route="r7" depart="15.0" speedFactor="1.2" />
  <vehicle id="veh16" type="DEFAULT_VEHTYPE" route="r0" depart="16.0" speedFactor="1.2" />
  <vehicle id="veh17" type="DEFAULT_VEHTYPE" route="r1" depart="17.0" speedFactor="1.2" />
  <vehicle id="veh18" type="DEFAULT_VEHTYPE" route="r2" depart="18.0" speedFactor="1.2" />
  <vehicle id="veh19" type="DEFAULT_VEHTYPE" route="r3" depart="19.0" speedFactor="1.2" />
  <vehicle id="veh20" type="DEFAULT_VEHTYPE" route="r4" depart="20.0" speedFactor="1.2" />
  <vehicle id="veh21" type="DEFAULT_VEHTYPE" route="r5" depart="21.0" speedFactor="1.2" />
  <vehicle id="veh22" type="DEFAULT_VEHTYPE" route="r6" depart="22.0" speedFactor="1.2" />
  <vehicle id="veh23" type="DEFAULT_VEHTYPE" route="r7" depart="23.0" speedFactor="1.2" />
  <vehicle id="veh24" type="DEFAULT_VEHTYPE" route="r0" depart="24.0" speedFactor="1.2" />
  <vehicle id="veh25" type="DEFAULT_VEHTYPE" route="r1" depart="25.0" speedFactor="1.2" />
  <vehicle id="veh26" type="DEFAULT_VEHTYPE" route="r2" depart="26.0" speedFactor="1.2" />
  <vehicle id="veh27" type="DEFAULT_VEHTYPE" route="r3" depart="27.0" speedFactor="1.2" />
  <vehicle id="veh28" type="DEFAULT_VEHTYPE" route="r4" depart="28.0" speedFactor="1.2" />
  <vehicle id="veh29" type="DEFAULT_VEHTYPE" route="r5" depart="29.0" speedFactor="1.2" />
  <vehicle id="veh30" type="DEFAULT_VEHTYPE" route="r6" depart="30.0" speedFactor="1.2" />
  <vehicle id="veh31" type="DEFAULT_VEHTYPE" route="r7" depart="31.0" speedFactor="1.2" />
  <vehicle id="veh32" type="DEFAULT_VEHTYPE" route="r0" depart="32.0" speedFactor="1.2" />
  <vehicle id="veh33" type="DEFAULT_VEHTYPE" route="r1" depart="33.0" speedFactor="1.2" />
  <vehicle id="veh34" type="DEFAULT_VEHTYPE" route="r2" depart="34.0" speedFactor="1.2" />
  <vehicle id="veh35" type="DEFAULT_VEHTYPE" route="r3" depart="35.0" speedFactor="1.2" />
  <vehicle id="veh36" type="DEFAULT_VEHTYPE" route="r4" depart="36.0" speedFactor="1.2" />
  <vehicle id="veh37" type="DEFAULT_VEHTYPE" route="r5" depart="37.0" speedFactor="1.2" />
  <vehicle id="veh38" type="DEFAULT_VEHTYPE" route="r6" depart="38.0" speedFactor="1.2" />
  <vehicle id="veh39" type="DEFAULT_VEHTYPE" route="r7" depart="39.0" speedFactor="1.2" />
  <vehicle id="veh40" type="DEFAULT_VEHTYPE" route="r0" depart="40.0" speedFactor="1.2" />
  <vehicle id="veh41" type="DEFAULT_VEHTYPE" route="r1" depart="41.0" speedFactor="1.2" />
  <vehicle id="veh42" type="DEFAULT_VEHTYPE" route="r2" depart="42.0" speedFactor="1.2" />
  <vehicle id="veh43" type="DEFAULT_VEHTYPE" route="r3" depart="43.0" speedFactor="1.2" />
  <vehicle id="veh44" type="DEFAULT_VEHTYPE" route="r4" depart="44.0" speedFactor="1.2" />
  <vehicle id="veh45" type="DEFAULT_VEHTYPE" route="r5" depart="45.0" speedFactor="1.2" />
  <vehicle id="veh46" type="DEFAULT_VEHTYPE" route="r6" depart="46.0" speedFactor="1.2" />
  <vehicle id="veh47" type="DEFAULT_VEHTYPE" route="r7" depart="47.0" speedFactor="1.2" />
  <vehicle id="veh48" type="DEFAULT_VEHTYPE" route="r0" depart="48.0" speedFactor="1.2" />
  <vehicle id="veh49" type="DEFAULT_VEHTYPE" route="r1" depart="49.0" speedFactor="1.2" />
  <vehicle id="veh50" type="DEFAULT_VEHTYPE" route="r2" depart="50.0" speedFactor="1.2" />
  <vehicle id="veh51" type="DEFAULT_VEHTYPE" route="r3" depart="51.0" speedFactor="1.2" />
  <vehicle id="veh52" type="DEFAULT_VEHTYPE" route="r4" depart="52.0" speedFactor="1.2" />
  <vehicle id="veh53" type="DEFAULT_VEHTYPE" route="r5" depart="53.0" speedFactor="1.2" />
  <vehicle id="veh54" type="DEFAULT_VEHTYPE" route="r6" depart="54.0" speedFactor="1.2" />
  <vehicle id="veh55" type="DEFAULT_VEHTYPE" route="r7" depart="55.0" speedFactor="1.2" />
  <vehicle id="veh56" type="DEFAULT_VEHTYPE" route="r0" depart="56.0" speedFactor="1.2" />
  <vehicle id="veh57" type="DEFAULT_VEHTYPE" route="r1" depart="57.0" speedFactor="1.2" />
  <vehicle id="veh58" type="DEFAULT_VEHTYPE" route="r2" depart="58.0" speedFactor="1.2" />
  <vehicle id="veh59" type="DEFAULT_VEHTYPE" route="r3" depart="59.0" speedFactor="1.2" />
  <vehicle id="veh60" type="DEFAULT_VEHTYPE" route="r4" depart="60.0" speedFactor="1.2" />
  <vehicle id="veh61" type="DEFAULT_VEHTYPE" route="r5" depart="61.0" speedFactor="1.2" />
  <vehicle id="veh62" type="DEFAULT_VEHTYPE" route="r6" depart="62.0" speedFactor="1.2" />
  <vehicle id="veh63" type="DEFAULT_VEHTYPE" route="r7" depart="63.0" speedFactor="1.2" />
  <vehicle id="veh64" type="DEFAULT_VEHTYPE" route="r0" depart="64.0" speedFactor="1.2" />
  <vehicle id="veh65" type="DEFAULT_VEHTYPE" route="r1" depart="65.0" speedFactor="1.2" />
  <vehicle id="veh66" type="DEFAULT_VEHTYPE" route="r2" depart="66.0" speedFactor="1.2" />
  <vehicle id="veh67" type="DEFAULT_VEHTYPE" route="r3" depart="67.0" speedFactor="1.2" />
  <vehicle id="veh68" type="DEFAULT_VEHTYPE" route="r4" depart="68.0" speedFactor="1.2" />
  <vehicle id="veh69" type="DEFAULT_VEHTYPE" route="r5" depart="69.0" speedFactor="1.2" />
  <vehicle id="veh70" type="DEFAULT_VEHTYPE" route="r6" depart="70.0" speedFactor="1.2" />
  <vehicle id="veh71" type="DEFAULT_VEHTYPE" route="r7" depart="71.0" speedFactor="1.2" />
  <vehicle id="veh72" type="DEFAULT_VEHTYPE" route="r0" depart="72.0" speedFactor="1.2" />
  <vehicle id="veh73" type="DEFAULT_VEHTYPE" route="r1" depart="73.0" speedFactor="1.2" />
  <vehicle id="veh74" type="DEFAULT_VEHTYPE" route="r2" depart="74.0" speedFactor="1.2" />
  <vehicle id="veh75" type="DEFAULT_VEHTYPE" route="r3" depart="75.0" speedFactor="1.2" />
  <vehicle id="veh76" type="DEFAULT_VEHTYPE" route="r4" depart="76.0" speedFactor="1.2" />
  <vehicle id="veh77" type="DEFAULT_VEHTYPE" route="r5" depart="77.0" speedFactor="1.2" />
  <vehicle id="veh78" type="DEFAULT_VEHTYPE" route="r6" depart="78.0" speedFactor="1.2" />
  <vehicle id="veh79" type="DEFAULT_VEHTYPE" route="r7" depart="79.0" speedFactor="1.2" />
  <vehicle id="veh80" type="DEFAULT_VEHTYPE" route="r0" depart="80.0" speedFactor="1.2" />
  <vehicle id="veh81" type="DEFAULT_VEHTYPE" route="r1" depart="81.0" speedFactor="1.2" />
  <vehicle id="veh82" type="DEFAULT_VEHTYPE" route="r2" depart="82.0" speedFactor="1.2" />
  <vehicle id="veh83" type="DEFAULT_VEHTYPE" route="r3" depart="83.0" speedFactor="1.2" />
  <vehicle id="veh84" type="DEFAULT_VEHTYPE" route="r4" depart="84.0" speedFactor="1.2" />
  <vehicle id="veh85" type="DEFAULT_VEHTYPE" route="r5" depart="85.0" speedFactor="1.2" />
  <vehicle id="veh86" type="DEFAULT_VEHTYPE" route="r6" depart="86.0" speedFactor="1.2" />
  <vehicle id="veh87" type="DEFAULT_VEHTYPE" route="r7" depart="87.0" speedFactor="1.2" />
  <vehicle id="veh88" type="DEFAULT_VEHTYPE" route="r0" depart="88.0" speedFactor="1.2" />
  <vehicle id="veh89" type="DEFAULT_VEHTYPE" route="r1" depart="89.0" speedFactor="1.2" />
  <vehicle id="veh90" type="DEFAULT_VEHTYPE" route="r2" depart="90.0" speedFactor="1.2" />
  <vehicle id="veh91" type="DEFAULT_VEHTYPE" route="r3" depart="91.0" speedFactor="1.2" />
  <vehicle id="veh92" type="DEFAULT_VEHTYPE" route="r4" depart="92.0" speedFactor="1.2" />
  <vehicle id="veh93" type="DEFAULT_VEHTYPE" route="r5" depart="93.0" speedFactor="1.2" />
  <vehicle id="veh94" type="DEFAULT_VEHTYPE" route="r6" depart="94.0" speedFactor="1.2" />
  <vehicle id="veh95" type="DEFAULT_VEHTYPE" route="r7" depart="95.0" speedFactor="1.2" />
  <vehicle id="veh96" type="DEFAULT_VEHTYPE" route="r0" depart="96.0" speedFactor="1.2" />
  <vehicle id="veh97" type="DEFAULT_VEHTYPE" route="r1" depart="97.0" speedFactor="1.2" />
  <vehicle id="veh98" type="DEFAULT_VEHTYPE" route="r2" depart="98.0" speedFactor="1.2" />
  <vehicle id="veh99" type="DEFAULT_VEHTYPE" route="r3" depart="99.0" speedFactor="1.2" />
  <vehicle id="veh100" type="DEFAULT_VEHTYPE" route="r4" depart="100.0" speedFactor="1.2" />
  <vehicle id="veh101" type="DEFAULT_VEHTYPE" route="r5" depart="101.0" speedFactor="1.2" />
  <vehicle id="veh102" type="DEFAULT_VEHTYPE" route="r6" depart="102.0" speedFactor="1.2" />
  <vehicle id="veh103" type="DEFAULT_VEHTYPE" route="r7" depart="103.0" speedFactor="1.2" />
  <vehicle id="veh104" type="DEFAULT_VEHTYPE" route="r0" depart="104.0" speedFactor="1.2" />
  <vehicle id="veh105" type="DEFAULT_VEHTYPE" route="r1" depart="105.0" speedFactor="1.2" />
  <vehicle id="veh106" type="DEFAULT_VEHTYPE" route="r2" depart="106.0" speedFactor="1.2" />
  <vehicle id="veh107" type="DEFAULT_VEHTYPE" route="r3" depart="107.0" speedFactor="1.2" />
  <vehicle id="veh108" type="DEFAULT_VEHTYPE" route="r4" depart="108.0" speedFactor="1.2" />
  <vehicle id="veh109" type="DEFAULT_VEHTYPE" route="r5" depart="109.0" speedFactor="1.2" />
  <vehicle id="veh110" type="DEFAULT_VEHTYPE" route="r6" depart="110.0" speedFactor="1.2" />
  <vehicle id="veh111" type="DEFAULT_VEHTYPE" route="r7" depart="111.0" speedFactor="1.2" />
  <vehicle id="veh112" type="DEFAULT_VEHTYPE" route="r0" depart="112.0" speedFactor="1.2" />
  <vehicle id="veh113" type="DEFAULT_VEHTYPE" route="r1" depart="113.0" speedFactor="1.2" />
  <vehicle id="veh114" type="DEFAULT_VEHTYPE" route="r2" depart="114.0" speedFactor="1.2" />
  <vehicle id="veh115" type="DEFAULT_VEHTYPE" route="r3" depart="115.0" speedFactor="1.2" />
  <vehicle id="veh116" type="DEFAULT_VEHTYPE" route="r4" depart="116.0" speedFactor="1.2" />
  <vehicle id="veh117" type="DEFAULT_VEHTYPE" route="r5" depart="117.0" speedFactor="1.2" />
  <vehicle id="veh118" type="DEFAULT_VEHTYPE" route="r6" depart="118.0" speedFactor="1.2" />
  <vehicle id="veh119" type="DEFAULT_VEHTYPE" route="r7" depart="119.0" speedFactor="1.2" />
  <vehicle id="veh120" type="DEFAULT_VEHTYPE" route="r0" depart="120.0" speedFactor="1.2" />
  <vehicle id="veh121" type="DEFAULT_VEHTYPE" route="r1" depart="121.0" speedFactor="1.2" />
  <vehicle id="veh122" type="DEFAULT_VEHTYPE" route="r2" depart="122.0" speedFactor="1.2" />
  <vehicle id="veh123" type="DEFAULT_VEHTYPE" route="r3" depart="123.0" speedFactor="1.2" />
  <vehicle id="veh124" type="DEFAULT_VEHTYPE" route="r4" depart="124.0" speedFactor="1.2" />
  <vehicle id="veh125" type="DEFAULT_VEHTYPE" route="r5" depart="125.0" speedFactor="1.2" />
  <vehicle id="veh126" type="DEFAULT_VEHTYPE" route="r6" depart="126.0" speedFactor="1.2" />
  <vehicle id="veh127" type="DEFAULT_VEHTYPE" route="r7" depart="127.0" speedFactor="1.2" />
  <vehicle id="veh128" type="DEFAULT_VEHTYPE" route="r0" depart="128.0" speedFactor="1.2" />
  <vehicle id="veh129" type="DEFAULT_VEHTYPE" route="r1" depart="129.0" speedFactor="1.2" />
  <vehicle id="veh130" type="DEFAULT_VEHTYPE" route="r2" depart="130.0" speedFactor="1.2" />
  <vehicle id="veh131" type="DEFAULT_VEHTYPE" route="r3" depart="131.0" speedFactor="1.2" />
  <vehicle id="veh132" type="DEFAULT_VEHTYPE" route="r4" depart="132.0" speedFactor="1.2" />
  <vehicle id="veh133" type="DEFAULT_VEHTYPE" route="r5" depart="133.0" speedFactor="1.2" />
  <vehicle id="veh134" type="DEFAULT_VEHTYPE" route="r6" depart="134.0" speedFactor="1.2" />
  <vehicle id="veh135" type="DEFAULT_VEHTYPE" route="r7" depart="135.0" speedFactor="1.2" />
  <vehicle id="veh136" type="DEFAULT_VEHTYPE" route="r0" depart="136.0" speedFactor="1.2" />
  <vehicle id="veh137" type="DEFAULT_VEHTYPE" route="r1" depart="137.0" speedFactor="1.2" />
  <vehicle id="veh138" type="DEFAULT_VEHTYPE" route="r2" depart="138.0" speedFactor="1.2" />
  <vehicle id="veh139" type="DEFAULT_VEHTYPE" route="r3" depart="139.0" speedFactor="1.2" />
  <vehicle id="veh140" type="DEFAULT_VEHTYPE" route="r4" depart="140.0" speedFactor="1.2" />
  <vehicle id="veh141" type="DEFAULT_VEHTYPE" route="r5" depart="141.0" speedFactor="1.2" />
  <vehicle id="veh142" type="DEFAULT_VEHTYPE" route="r6" depart="142.0" speedFactor="1.2" />
  <vehicle id="veh143" type="DEFAULT_VEHTYPE" route="r7" depart="143.0" speedFactor="1.2" />
  <vehicle id="veh144" type="DEFAULT_VEHTYPE" route="r0" depart="144.0" speedFactor="1.2" />
  <vehicle id="veh145" type="DEFAULT_VEHTYPE" route="r1" depart="145.0" speedFactor="1.2" />
  <vehicle id="veh146" type="DEFAULT_VEHTYPE" route="r2" depart="146.0" speedFactor="1.2" />
  <vehicle id="veh147" type="DEFAULT_VEHTYPE" route="r3" depart="147.0" speedFactor="1.2" />
  <vehicle id="veh148" type="DEFAULT_VEHTYPE" route="r4" depart="148.0" speedFactor="1.2" />
  <vehicle id="veh149" type="DEFAULT_VEHTYPE" route="r5" depart="149.0" speedFactor="1.2" />
  <vehicle id="veh150" type="DEFAULT_VEHTYPE" route="r6" depart="150.0" speedFactor="1.2" />
  <vehicle id="veh151" type="DEFAULT_VEHTYPE" route="r7" depart="151.0" speedFactor="1.2" />
  <vehicle id="veh152" type="DEFAULT_VEHTYPE" route="r0" depart="152.0" speedFactor="1.2" />
  <vehicle id="veh153" type="DEFAULT_VEHTYPE" route="r1" depart="153.0" speedFactor="1.2" />
  <vehicle id="veh154" type="DEFAULT_VEHTYPE" route="r2" depart="154.0" speedFactor="1.2" />
  <vehicle id="veh155" type="DEFAULT_VEHTYPE" route="r3" depart="155.0" speedFactor="1.2" />
  <vehicle id="veh156" type="DEFAULT_VEHTYPE" route="r4" depart="156.0" speedFactor="1.2" />
  <vehicle id="veh157" type="DEFAULT_VEHTYPE" route="r5" depart="157.0" speedFactor="1.2" />
  <vehicle id="veh158" type="DEFAULT_VEHTYPE" route="r6" depart="158.0" speedFactor="1.2" />
  <vehicle id="veh159" type="DEFAULT_VEHTYPE" route="r7" depart="159.0" speedFactor="1.2" />
  <vehicle id="veh160" type="DEFAULT_VEHTYPE" route="r0" depart="160.0" speedFactor="1.2" />
  <vehicle id="veh161" type="DEFAULT_VEHTYPE" route="r1" depart="161.0" speedFactor="1.2" />
  <vehicle id="veh162" type="DEFAULT_VEHTYPE" route="r2" depart="162.0" speedFactor="1.2" />
  <vehicle id="veh163" type="DEFAULT_VEHTYPE" route="r3" depart="163.0" speedFactor="1.2" />
  <vehicle id="veh164" type="DEFAULT_VEHTYPE" route="r4" depart="164.0" speedFactor="1.2" />
  <vehicle id="veh165" type="DEFAULT_VEHTYPE" route="r5" depart="165.0" speedFactor="1.2" />
  <vehicle id="veh166" type="DEFAULT_VEHTYPE" route="r6" depart="166.0" speedFactor="1.2" />
  <vehicle id="veh167" type="DEFAULT_VEHTYPE" route="r7" depart="167.0" speedFactor="1.2" />
  <vehicle id="veh168" type="DEFAULT_VEHTYPE" route="r0" depart="168.0" speedFactor="1.2" />
  <vehicle id="veh169" type="DEFAULT_VEHTYPE" route="r1" depart="169.0" speedFactor="1.2" />
  <vehicle id="veh170" type="DEFAULT_VEHTYPE" route="r2" depart="170.0" speedFactor="1.2" />
  <vehicle id="veh171" type="DEFAULT_VEHTYPE" route="r3" depart="171.0" speedFactor="1.2" />
  <vehicle id="veh172" type="DEFAULT_VEHTYPE" route="r4" depart="172.0" speedFactor="1.2" />
  <vehicle id="veh173" type="DEFAULT_VEHTYPE" route="r5" depart="173.0" speedFactor="1.2" />
  <vehicle id="veh174" type="DEFAULT_VEHTYPE" route="r6" depart="174.0" speedFactor="1.2" />
  <vehicle id="veh175" type="DEFAULT_VEHTYPE" route="r7" depart="175.0" speedFactor="1.2" />
  <vehicle id="veh176" type="DEFAULT_VEHTYPE" route="r0" depart="176.0" speedFactor="1.2" />
  <vehicle id="veh177" type="DEFAULT_VEHTYPE" route="r1" depart="177.0" speedFactor="1.2" />
  <vehicle id="veh178" type="DEFAULT_VEHTYPE" route="r2" depart="178.0" speedFactor="1.2" />
  <vehicle id="veh179" type="DEFAULT_VEHTYPE" route="r3" depart="179.0" speedFactor="1.2" />
  <vehicle id="veh180" type="DEFAULT_VEHTYPE" route="r4" depart="180.0" speedFactor="1.2" />
  <vehicle id="veh181" type="DEFAULT_VEHTYPE" route="r5" depart="181.0" speedFactor="1.2" />
  <vehicle id="veh182" type="DEFAULT_VEHTYPE" route="r6" depart="182.0" speedFactor="1.2" />
  <vehicle id="veh183" type="DEFAULT_VEHTYPE" route="r7" depart="183.0" speedFactor="1.2" />
  <vehicle id="veh184" type="DEFAULT_VEHTYPE" route="r0" depart="184.0" speedFactor="1.2" />
  <vehicle id="veh185" type="DEFAULT_VEHTYPE" route="r1" depart="185.0" speedFactor="1.2" />
  <vehicle id="veh186" type="DEFAULT_VEHTYPE" route="r2" depart="186.0" speedFactor="1.2" />
  <vehicle id="veh187" type="DEFAULT_VEHTYPE" route="r3" depart="187.0" speedFactor="1.2" />
  <vehicle id="veh188" type="DEFAULT_VEHTYPE" route="r4" depart="188.0" speedFactor="1.2" />
  <vehicle id="veh189" type="DEFAULT_VEHTYPE" route="r5" depart="189.0" speedFactor="1.2" />
  <vehicle id="veh190" type="DEFAULT_VEHTYPE" route="r6" depart="190.0" speedFactor="1.2" />
  <vehicle id="veh191" type="DEFAULT_VEHTYPE" route="r7" depart="191.0" speedFactor="1.2" />
  <vehicle id="veh192" type="DEFAULT_VEHTYPE" route="r0" depart="192.0" speedFactor="1.2" />
  <vehicle id="veh193" type="DEFAULT_VEHTYPE" route="r1" depart="193.0" speedFactor="1.2" />
  <vehicle id="veh194" type="DEFAULT_VEHTYPE" route="r2" depart="194.0" speedFactor="1.2" />
  <vehicle id="veh195" type="DEFAULT_VEHTYPE" route="r3" depart="195.0" speedFactor="1.2" />
  <vehicle id="veh196" type="DEFAULT_VEHTYPE" route="r4" depart="196.0" speedFactor="1.2" />
  <vehicle id="veh197" type="DEFAULT_VEHTYPE" route="r5" depart="197.0" speedFactor="1.2" />
  <vehicle id="veh198" type="DEFAULT_VEHTYPE" route="r6" depart="198.0" speedFactor="1.2" />
  <vehicle id="veh199" type="DEFAULT_VEHTYPE" route="r7" depart="199.0" speedFactor="1.2" />
  <vehicle id="veh200" type="DEFAULT_VEHTYPE" route="r0" depart="200.0" speedFactor="1.2" />
  <vehicle id="veh201" type="DEFAULT_VEHTYPE" route="r1" depart="201.0" speedFactor="1.2" />
  <vehicle id="veh202" type="DEFAULT_VEHTYPE" route="r2" depart="202.0" speedFactor="1.2" />
  <vehicle id="veh203" type="DEFAULT_VEHTYPE" route="r3" depart="203.0" speedFactor="1.2" />
  <vehicle id="veh204" type="DEFAULT_VEHTYPE" route="r4" depart="204.0" speedFactor="1.2" />
  <vehicle id="veh205" type="DEFAULT_VEHTYPE" route="r5" depart="205.0" speedFactor="1.2" />
  <vehicle id="veh206" type="DEFAULT_VEHTYPE" route="r6" depart="206.0" speedFactor="1.2" />
  <vehicle id="veh207" type="DEFAULT_VEHTYPE" route="r7" depart="207.0" speedFactor="1.2" />
  <vehicle id="veh208" type="DEFAULT_VEHTYPE" route="r0" depart="208.0" speedFactor="1.2" />
  <vehicle id="veh209" type="DEFAULT_VEHTYPE" route="r1" depart="209.0" speedFactor="1.2" />
  <vehicle id="veh210" type="DEFAULT_VEHTYPE" route="r2" depart="210.0" speedFactor="1.2" />
  <vehicle id="veh211" type="DEFAULT_VEHTYPE" route="r3" depart="211.0" speedFactor="1.2" />
  <vehicle id="veh212" type="DEFAULT_VEHTYPE" route="r4" depart="212.0" speedFactor="1.2" />
  <vehicle id="veh213" type="DEFAULT_VEHTYPE" route="r5" depart="213.0" speedFactor="1.2" />
  <vehicle id="veh214" type="DEFAULT_VEHTYPE" route="r6" depart="214.0" speedFactor="1.2" />
  <vehicle id="veh215" type="DEFAULT_VEHTYPE" route="r7" depart="215.0" speedFactor="1.2" />
  <vehicle id="veh216" type="DEFAULT_VEHTYPE" route="r0" depart="216.0" speedFactor="1.2" />
  <vehicle id="veh217" type="DEFAULT_VEHTYPE" route="r1" depart="217.0" speedFactor="1.2" />
  <vehicle id="veh218" type="DEFAULT_VEHTYPE" route="r2" depart="218.0" speedFactor="1.2" />
  <vehicle id="veh219" type="DEFAULT_VEHTYPE" route="r3" depart="219.0" speedFactor="1.2" />
  <vehicle id="veh220" type="DEFAULT_VEHTYPE" route="r4" depart="220.0" speedFactor="1.2" />
  <vehicle id="veh221" type="DEFAULT_VEHTYPE" route="r5" depart="221.0" speedFactor="1.2" />
  <vehicle id="veh222" type="DEFAULT_VEHTYPE" route="r6" depart="222.0" speedFactor="1.2" />
  <vehicle id="veh223" type="DEFAULT_VEHTYPE" route="r7" depart="223.0" speedFactor="1.2" />
  <vehicle id="veh224" type="DEFAULT_VEHTYPE" route="r0" depart="224.0" speedFactor="1.2" />
  <vehicle id="veh225" type="DEFAULT_VEHTYPE" route="r1" depart="225.0" speedFactor="1.2" />
  <vehicle id="veh226" type="DEFAULT_VEHTYPE" route="r2" depart="226.0" speedFactor="1.2" />
  <vehicle id="veh227" type="DEFAULT_VEHTYPE" route="r3" depart="227.0" speedFactor="1.2" />
  <vehicle id="veh228" type="DEFAULT_VEHTYPE" route="r4" depart="228.0" speedFactor="1.2" />
  <vehicle id="veh229" type="DEFAULT_VEHTYPE" route="r5" depart="229.0" speedFactor="1.2" />
  <vehicle id="veh230" type="DEFAULT_VEHTYPE" route="r6" depart="230.0" speedFactor="1.2" />
  <vehicle id="veh231" type="DEFAULT_VEHTYPE" route="r7" depart="231.0" speedFactor="1.2" />
  <vehicle id="veh232" type="DEFAULT_VEHTYPE" route="r0" depart="232.0" speedFactor="1.2" />
  <vehicle id="veh233" type="DEFAULT_VEHTYPE" route="r1" depart="233.0" speedFactor="1.2" />
  <vehicle id="veh234" type="DEFAULT_VEHTYPE" route="r2" depart="234.0" speedFactor="1.2" />
  <vehicle id="veh235" type="DEFAULT_VEHTYPE" route="r3" depart="235.0" speedFactor="1.2" />
  <vehicle id="veh236" type="DEFAULT_VEHTYPE" route="r4" depart="236.0" speedFactor="1.2" />
  <vehicle id="veh237" type="DEFAULT_VEHTYPE" route="r5" depart="237.0" speedFactor="1.2" />
  <vehicle id="veh238" type="DEFAULT_VEHTYPE" route="r6" depart="238.0" speedFactor="1.2" />
  <vehicle id="veh239" type="DEFAULT_VEHTYPE" route="r7" depart="239.0" speedFactor="1.2" />
  <vehicle id="veh240" type="DEFAULT_VEHTYPE" route="r0" depart="240.0" speedFactor="1.2" />
  <vehicle id="veh241" type="DEFAULT_VEHTYPE" route="r1" depart="241.0" speedFactor="1.2" />
  <vehicle id="veh242" type="DEFAULT_VEHTYPE" route="r2" depart="242.0" speedFactor="1.2" />
  <vehicle id="veh243" type="DEFAULT_VEHTYPE" route="r3" depart="243.0" speedFactor="1.2" />
  <vehicle id="veh244" type="DEFAULT_VEHTYPE" route="r4" depart="244.0" speedFactor="1.2" />
  <vehicle id="veh245" type="DEFAULT_VEHTYPE" route="r5" depart="245.0" speedFactor="1.2" />
  <vehicle id="veh246" type="DEFAULT_VEHTYPE" route="r6" depart="246.0" speedFactor="1.2" />
  <vehicle id="veh247" type="DEFAULT_VEHTYPE" route="r7" depart="247.0" speedFactor="1.2" />
  <vehicle id="veh248" type="DEFAULT_VEHTYPE" route="r0" depart="248.0" speedFactor="1.2" />
  <vehicle id="veh249" type="DEFAULT_VEHTYPE" route="r1" depart="249.0" speedFactor="1.2" />
  <vehicle id="veh250" type="DEFAULT_VEHTYPE" route="r2" depart="250.0" speedFactor="1.2" />
  <vehicle id="veh251" type="DEFAULT_VEHTYPE" route="r3" depart="251.0" speedFactor="1.2" />
  <vehicle id="veh252" type="DEFAULT_VEHTYPE" route="r4" depart="252.0" speedFactor="1.2" />
  <vehicle id="veh253" type="DEFAULT_VEHTYPE" route="r5" depart="253.0" speedFactor="1.2" />
  <vehicle id="veh254" type="DEFAULT_VEHTYPE" route="r6" depart="254.0" speedFactor="1.2" />
  <vehicle id="veh255" type="DEFAULT_VEHTYPE" route="r7" depart="255.0" speedFactor="1.2" />
  <vehicle id="veh256" type="DEFAULT_VEHTYPE" route="r0" depart="256.0" speedFactor="1.2" />
  <vehicle id="veh257" type="DEFAULT_VEHTYPE" route="r1" depart="257.0" speedFactor="1.2" />
  <vehicle id="veh258" type="DEFAULT_VEHTYPE" route="r2" depart="258.0" speedFactor="1.2" />
  <vehicle id="veh259" type="DEFAULT_VEHTYPE" route="r3" depart="259.0" speedFactor="1.2" />
  <vehicle id="veh260" type="DEFAULT_VEHTYPE" route="r4" depart="260.0" speedFactor="1.2" />
  <vehicle id="veh261" type="DEFAULT_VEHTYPE" route="r5" depart="261.0" speedFactor="1.2" />
  <vehicle id="veh262" type="DEFAULT_VEHTYPE" route="r6" depart="262.0" speedFactor="1.2" />
  <vehicle id="veh263" type="DEFAULT_VEHTYPE" route="r7" depart="263.0" speedFactor="1.2" />
  <vehicle id="veh264" type="DEFAULT_VEHTYPE" route="r0" depart="264.0" speedFactor="1.2" />
  <vehicle id="veh265" type="DEFAULT_VEHTYPE" route="r1" depart="265.0" speedFactor="1.2" />
  <vehicle id="veh266" type="DEFAULT_VEHTYPE" route="r2" depart="266.0" speedFactor="1.2" />
  <vehicle id="veh267" type="DEFAULT_VEHTYPE" route="r3" depart="267.0" speedFactor="1.2" />
  <vehicle id="veh268" type="DEFAULT_VEHTYPE" route="r4" depart="268.0" speedFactor="1.2" />
  <vehicle id="veh269" type="DEFAULT_VEHTYPE" route="r5" depart="269.0" speedFactor="1.2" />
  <vehicle id="veh270" type="DEFAULT_VEHTYPE" route="r6" depart="270.0" speedFactor="1.2" />
  <vehicle id="veh271" type="DEFAULT_VEHTYPE" route="r7" depart="271.0" speedFactor="1.2" />
  <vehicle id="veh272" type="DEFAULT_VEHTYPE" route="r0" depart="272.0" speedFactor="1.2" />
  <vehicle id="veh273" type="DEFAULT_VEHTYPE" route="r1" depart="273.0" speedFactor="1.2" />
  <vehicle id="veh274" type="DEFAULT_VEHTYPE" route="r2" depart="274.0" speedFactor="1.2" />
  <vehicle id="veh275" type="DEFAULT_VEHTYPE" route="r3" depart="275.0" speedFactor="1.2" />
  <vehicle id="veh276" type="DEFAULT_VEHTYPE" route="r4" depart="276.0" speedFactor="1.2" />
  <vehicle id="veh277" type="DEFAULT_VEHTYPE" route="r5" depart="277.0" speedFactor="1.2" />
  <vehicle id="veh278" type="DEFAULT_VEHTYPE" route="r6" depart="278.0" speedFactor="1.2" />
  <vehicle id="veh279" type="DEFAULT_VEHTYPE" route="r7" depart="279.0" speedFactor="1.2" />
  <vehicle id="veh280" type="DEFAULT_VEHTYPE" route="r0" depart="280.0" speedFactor="1.2" />
  <vehicle id="veh281" type="DEFAULT_VEHTYPE" route="r1" depart="281.0" speedFactor="1.2" />
  <vehicle id="veh282" type="DEFAULT_VEHTYPE" route="r2" depart="282.0" speedFactor="1.2" />
  <vehicle id="veh283" type="DEFAULT_VEHTYPE" route="r3" depart="283.0" speedFactor="1.2" />
  <vehicle id="veh284" type="DEFAULT_VEHTYPE" route="r4" depart="284.0" speedFactor="1.2" />
  <vehicle id="veh285" type="DEFAULT_VEHTYPE" route="r5" depart="285.0" speedFactor="1.2" />
  <vehicle id="veh286" type="DEFAULT_VEHTYPE" route="r6" depart="286.0" speedFactor="1.2" />
  <vehicle id="veh287" type="DEFAULT_VEHTYPE" route="r7" depart="287.0" speedFactor="1.2" />
  <vehicle id="veh288" type="DEFAULT_VEHTYPE" route="r0" depart="288.0" speedFactor="1.2" />
  <vehicle id="veh289" type="DEFAULT_VEHTYPE" route="r1" depart="289.0" speedFactor="1.2" />
  <vehicle id="veh290" type="DEFAULT_VEHTYPE" route="r2" depart="290.0" speedFactor="1.2" />
  <vehicle id="veh291" type="DEFAULT_VEHTYPE" route="r3" depart="291.0" speedFactor="1.2" />
  <vehicle id="veh292" type="DEFAULT_VEHTYPE" route="r4" depart="292.0" speedFactor="1.2" />
  <vehicle id="veh293" type="DEFAULT_VEHTYPE" route="r5" depart="293.0" speedFactor="1.2" />
  <vehicle id="veh294" type="DEFAULT_VEHTYPE" route="r6" depart="294.0" speedFactor="1.2" />
  <vehicle id="veh295" type="DEFAULT_VEHTYPE" route="r7" depart="295.0" speedFactor="1.2" />
  <vehicle id="veh296" type="DEFAULT_VEHTYPE" route="r0" depart="296.0" speedFactor="1.2" />
  <vehicle id="veh297" type="DEFAULT_VEHTYPE" route="r1" depart="297.0" speedFactor="1.2" />
  <vehicle id="veh298" type="DEFAULT_VEHTYPE" route="r2" depart="298.0" speedFactor="1.2" />
  <vehicle id="veh299" type="DEFAULT_VEHTYPE" route="r3" depart="299.0" speedFactor="1.2" />