<?xml version="1.0" encoding="UTF-8"?>
<routes>
  <vType id="DEFAULT_VEHTYPE" accel="3.0" decel="6.0" maxSpeed="22.22" speedFactor="1.2" speedDev="0.1" sigma="0.3" length="4.5" minGap="1.5" tau="0.8" lcStrategic="1.0" lcCooperative="0.3"/>
  <route id="r0" edges="422535909#0 588508358#1 215616069#2 515278525#0 515278525#1 515278525#1-AddedOffRampEdge 521254462#1 1110911773 1110911771 857501633#0 857501633#1 857501633#2 1110911770 1111569811 57899745#0 57899745#1 1428288126#0 1428288126#1 1428288126#4 187372347"/>
  <route id="r1" edges="-105623068#1 -105623068#0 41830790#1 514228253 515278525#0 515278525#1 515278525#1-AddedOffRampEdge 521254462#1 1110911773 1110911771 857501633#0 857501633#1 857501633#2 1110911770 1111569811 57899745#0 57899745#1 1428288126#0 1428288126#1 1428288126#4"/>
  <route id="r2" edges="738677099 738677097 588508392 215616069#0 215616069#1 215616069#2 515278525#0 515278525#1 515278525#1-AddedOffRampEdge 521254462#1 1110911773 1110911771 857501633#0 857501633#1 857501633#2 36852270#0 36852270#4 36852270#5-AddedOnRampEdge 36852270#5 36852270#6"/>
  <route id="r3" edges="509616554 315384815#0 315384815#1 174115288#0 637416531 423032197#1 423032197#2 857501633#0 857501633#1 857501633#2 1110911770 1111569811 57899745#0 57899745#1 1428288126#0 1428288126#1 1428288126#4 -1428288126#4 -1428288126#1 -1428288126#0"/>
  <route id="r4" edges="422535915 514228253 515278525#0 515278525#1 515278525#1-AddedOffRampEdge 521254462#1 1110911773 1110911771 857501633#0 857501633#1 857501633#2 1110911770 1111569811 57899745#0 57899745#1 1428288126#0 1428288126#1 1428288126#4 -1428288126#4 -1428288126#1"/>
  <route id="r5" edges="515278525#1 515278525#1-AddedOffRampEdge 488663951 203831004#2-AddedOnRampEdge 203831004#2 203831004#4 36852365#1 36852365#2 573723858 514228253 422535909#0 422535909#1 422535909#2 573723837 738677099 -458156297#2 -458156297#1 -458156297#0 458156297#0 458156297#1"/>
  <route id="r6" edges="1428288127 -1428288127 1428288129#1 -1428288129#1"/>
  <route id="r7" edges="-108730141#0 108730141#0 108730141#1 108730141#2 57899744#1 515278525#0 515278525#1 515278525#1-AddedOffRampEdge 521254462#1 1110911773 1110911771 857501633#0 857501633#1 857501633#2 1110911770 1111569811 57899745#0 57899745#1 1428288126#0 1428288126#1"/>
  <route id="r8" edges="-1070214754 -105623068#1 -105623068#0 41830790#1 514228253 515278525#0 515278525#1 515278525#1-AddedOffRampEdge 521254462#1 1110911773 1110911771 857501633#0 857501633#1 857501633#2 1110911770 1111569811 57899745#0 57899745#1 1428288126#0 1428288126#1"/>
  <route id="r9" edges="1428288126#4 187372347 1453652489 186242119#5 1111569811 1110911769 1110911773 203831004#0 203831004#1 203831004#2-AddedOnRampEdge 203831004#2 -315384816#1 -315384816#0 -545576576#1 -509616556#1 -509616556#0 509616557 -509616557"/>
  <route id="r10" edges="1236190976 -1236190976 458156297#1 458156297#2 738677097 588508392 215616069#0 215616069#1 215616069#2 422535915 1055761576#0 1055761576#1 1055761576#2 -714182864 714182863#0 714182863#1 203831004#9 423032199#1 203831009#0 203831009#1"/>
  <route id="r11" edges="583602961#0 583602961#1 583602961#2"/>
  <route id="r12" edges="578812425#1 392491110"/>
  <route id="r13" edges="203831004#9 423032199#1 203831009#0 203831009#1 203831009#2 714182863#0 714182863#1 315384815#0 315384815#1 174115288#0 637416531 423032197#1 423032197#2 857501633#0 857501633#1 857501633#2 36852270#0 36852270#4 36852270#5-AddedOnRampEdge 36852270#5"/>
  <route id="r14" edges="1349094940#0 1349094940#1"/>
  <route id="r15" edges="1316035068#2 1316035068#3 1316035068#4 1316035068#6"/>
  <route id="r16" edges="1111569811 57899745#0 57899745#1 57899745#2 422535909#0 422535909#1 422535909#2 573723837 738677099 -458156297#2 -458156297#1 -458156297#0 458156297#0 458156297#1 458156297#2"/>
  <route id="r17" edges="-573723836#1 588508392 215616069#0 215616069#1 215616069#2 515278525#0 515278525#1 515278525#1-AddedOffRampEdge 521254462#1 1110911773 1110911771 857501633#0 857501633#1 857501633#2 1110911770 1111569811 57899745#0 57899745#1 1428288126#0 1428288126#1"/>
  <route id="r18" edges="174115288#3 174115288#4 588508386#1 588508386#2 588508386#3 857501633#2 1110911770 1111569811 57899745#0 57899745#1 57899745#2 422535909#0 422535909#1 422535909#2 573723837 738677099 -458156297#2 -458156297#1 -458156297#0 458156297#0"/>
  <route id="r19" edges="215616069#1 215616069#2 515278525#0 515278525#1 515278525#1-AddedOffRampEdge 521254462#1 1110911773 1110911771 857501633#0 857501633#1 857501633#2 1110911770 1111569811 57899745#0 57899745#1 1428288126#0 1428288126#1 1428288126#4 -1428288126#4 -1428288126#1"/>
  <route id="r20" edges="174115288#0 637416531 423032197#1 423032197#2 857501633#0 857501633#1 857501633#2 1110911770 1111569811 57899745#0 57899745#1 57899745#2 422535909#0 422535909#1 422535909#2 573723837 738677099 -458156297#2 -458156297#1 -458156297#0"/>
  <route id="r21" edges="588508387#0 588508386#1 588508386#2 588508386#3 857501633#2 1110911770 1111569811 57899745#0 57899745#1 57899745#2 422535909#0 422535909#1 422535909#2 573723837 738677099 -458156297#2 -458156297#1 -458156297#0 458156297#0 458156297#1"/>
  <route id="r22" edges="-545576576#0 545576576#0 545576576#1 174115288#0 637416531 423032197#1 423032197#2 857501633#0 857501633#1 857501633#2 1110911770 1111569811 57899745#0 57899745#1 1428288126#0 1428288126#1 1428288126#4 -1428288126#4 -1428288126#1 -1428288126#0"/>
  <route id="r23" edges="459971384#0 459971384#1 459971384#2"/>
  <route id="r24" edges="105623068#0 105623068#1 -105623068#1 -105623068#0 41830790#1 514228253 515278525#0 515278525#1 515278525#1-AddedOffRampEdge 521254462#1 1110911773 1110911771 857501633#0 857501633#1 857501633#2 36852270#0 36852270#4 36852270#5-AddedOnRampEdge 36852270#5 36852270#6"/>
  <route id="r25" edges="509616555#4 509616555#6 509616555#7-AddedOnRampEdge 509616555#7 423032197#1 423032197#2 857501633#0 857501633#1 857501633#2 1110911770 1111569811 57899745#0 57899745#1 1428288126#0 1428288126#1 1428288126#4 -1428288126#4 -1428288126#1 -1428288126#0"/>
  <route id="r26" edges="108730141#0 108730141#1 108730141#2 57899744#1 515278525#0 515278525#1 515278525#1-AddedOffRampEdge 521254462#1 1110911773 1110911771 857501633#0 857501633#1 857501633#2 1110911770 1111569811 57899745#0 57899745#1 1428288126#0 1428288126#1 1428288126#4"/>
  <route id="r27" edges="203831009#1 203831009#2 714182863#0 714182863#1 315384815#0 315384815#1 174115288#0 637416531 423032197#1 423032197#2 857501633#0 857501633#1 857501633#2 1110911770 1111569811 57899745#0 57899745#1 1428288126#0 1428288126#1 1428288126#4"/>
  <route id="r28" edges="1316035068#0 1316035068#1 1316035068#2 1316035068#3 1316035068#4 1316035068#6"/>
  <route id="r29" edges="578812422 108730141#1 108730141#2 57899744#1 515278525#0 515278525#1 515278525#1-AddedOffRampEdge 521254462#1 1110911773 1110911771 857501633#0 857501633#1 857501633#2 1110911770 1111569811 57899745#0 57899745#1 1428288126#0 1428288126#1 1428288126#4"/>
  <route id="r30" edges="57899745#0 57899745#1 57899745#2 515278525#0 515278525#1 515278525#1-AddedOffRampEdge 521254462#1 1110911773 1110911771 857501633#0 857501633#1 857501633#2 36852270#0 36852270#4 36852270#5-AddedOnRampEdge 36852270#5 36852270#6"/>
  <route id="r31" edges="1055761576#0 -174115129 -105623068#0 41830790#1 514228253 515278525#0 515278525#1 515278525#1-AddedOffRampEdge 521254462#1 1110911773 1110911771 857501633#0 857501633#1 857501633#2 1110911770 1111569811 57899745#0 57899745#1 1428288126#0 1428288126#1"/>
  <route id="r32" edges="-458156297#0 458156297#0 458156297#1 458156297#2 738677097 588508392 215616069#0 215616069#1 215616069#2 422535915 1055761576#0 1055761576#1 1055761576#2 -714182864 714182863#0 714182863#1 203831004#9 423032199#1 203831009#0 203831009#1"/>
  <route id="r33" edges="573723859 -714182864 714182863#0 714182863#1 315384815#0 315384815#1 174115288#0 637416531 423032197#1 423032197#2 857501633#0 857501633#1 857501633#2 1110911770 1111569811 57899745#0 57899745#1 1428288126#0 1428288126#1 1428288126#4"/>
  <route id="r34" edges="514228250#0 -174115099#1 -1070214755 573723859 -714182864 714182863#0 714182863#1 315384815#0 315384815#1 174115288#0 637416531 423032197#1 423032197#2 857501633#0 857501633#1 857501633#2 36852270#0 36852270#4 36852270#5-AddedOnRampEdge 36852270#5"/>
  <route id="r35" edges="588508386#1 588508386#2 588508386#3 857501633#2 1110911770 1111569811 57899745#0 57899745#1 57899745#2 422535909#0 422535909#1 422535909#2 573723837 738677099 -458156297#2 -458156297#1 -458156297#0 458156297#0 458156297#1 458156297#2"/>
  <route id="r36" edges="-264034458 264034458 215616069#0 215616069#1 215616069#2 515278525#0 515278525#1 515278525#1-AddedOffRampEdge 521254462#1 1110911773 1110911771 857501633#0 857501633#1 857501633#2 1110911770 1111569811 57899745#0 57899745#1 1428288126#0 1428288126#1"/>
  <route id="r37" edges="215617942 -1428288126#4 -1428288126#1 -1428288126#0 57899745#2 515278525#0 515278525#1 515278525#1-AddedOffRampEdge 488663951 203831004#2-AddedOnRampEdge 203831004#2 -315384816#1 -315384816#0 -545576576#1 -509616556#1 -509616556#0 509616557 -509616557"/>
  <route id="r38" edges="597898837 509616555#7-AddedOnRampEdge 509616555#7 423032197#1 423032197#2 857501633#0 857501633#1 857501633#2 1110911770 1111569811 57899745#0 57899745#1 57899745#2 422535909#0 422535909#1 422535909#2 573723837 738677099 -458156297#2 -458156297#1"/>
  <route id="r39" edges="203831004#1 203831004#2-AddedOnRampEdge 203831004#2 509616555#6 509616555#7-AddedOnRampEdge 509616555#7 423032197#1 423032197#2 857501633#0 857501633#1 857501633#2 1110911770 1111569811 57899745#0 57899745#1 1428288126#0 1428288126#1 1428288126#4 -1428288126#4 -1428288126#1"/>
  <route id="r40" edges="-215616090#0 215616090#0 -573723836#1 588508392 215616069#0 215616069#1 215616069#2 515278525#0 515278525#1 515278525#1-AddedOffRampEdge 488663951 203831004#2-AddedOnRampEdge 203831004#2 -315384816#1 -315384816#0 -545576576#1 -509616556#1 -509616556#0 509616557 -509616557"/>
  <route id="r41" edges="1110911770 1111569811 57899745#0 57899745#1 57899745#2 422535909#0 422535909#1 422535909#2 573723837 738677099 -458156297#2 -458156297#1 -458156297#0 458156297#0 458156297#1 458156297#2"/>
  <route id="r42" edges="108730141#1 108730141#2 57899744#1 515278525#0 515278525#1 515278525#1-AddedOffRampEdge 521254462#1 1110911773 1110911771 857501633#0 857501633#1 857501633#2 1110911770 1111569811 57899745#0 57899745#1 1428288126#0 1428288126#1 1428288126#4 187372347"/>
  <route id="r43" edges="459971378#0 105623002"/>
  <route id="r44" edges="740164670 714182863#1 315384815#0 315384815#1 174115288#0 637416531 423032197#1 423032197#2 857501633#0 857501633#1 857501633#2 1110911770 1111569811 57899745#0 57899745#1 1428288126#0 1428288126#1 1428288126#4 -1428288126#4 -1428288126#1"/>
  <route id="r45" edges="488663951 203831004#2-AddedOnRampEdge 203831004#2 509616555#6 509616555#7-AddedOnRampEdge 509616555#7 423032197#1 423032197#2 857501633#0 857501633#1 857501633#2 1110911770 1111569811 57899745#0 57899745#1 1428288126#0 1428288126#1 1428288126#4 -1428288126#4 -1428288126#1"/>
  <route id="r46" edges="-105623038 105623038 41830790#0 41830790#1 514228253 515278525#0 515278525#1 515278525#1-AddedOffRampEdge 521254462#1 1110911773 1110911771 857501633#0 857501633#1 857501633#2 1110911770 1111569811 57899745#0 57899745#1 1428288126#0 1428288126#1"/>
  <route id="r47" edges="857501633#0 857501633#1 857501633#2 1110911770 1111569811 57899745#0 57899745#1 57899745#2 422535909#0 422535909#1 422535909#2 573723837 738677099 -458156297#2 -458156297#1 -458156297#0 458156297#0 458156297#1 458156297#2"/>
  <route id="r48" edges="-509616556#0 509616554 315384815#0 315384815#1 174115288#0 637416531 423032197#1 423032197#2 857501633#0 857501633#1 857501633#2 1110911770 1111569811 57899745#0 57899745#1 1428288126#0 1428288126#1 1428288126#4 -1428288126#4 -1428288126#1"/>
  <route id="r49" edges="-714182864 714182863#0 714182863#1 315384815#0 315384815#1 174115288#0 637416531 423032197#1 423032197#2 857501633#0 857501633#1 857501633#2 1110911770 1111569811 57899745#0 57899745#1 1428288126#0 1428288126#1 1428288126#4 187372347"/>
  <vehicle id="veh0" type="DEFAULT_VEHTYPE" route="r0" depart="0.0" speedFactor="1.2"/>
  <vehicle id="veh1" type="DEFAULT_VEHTYPE" route="r1" depart="0.6" speedFactor="1.2"/>
  <vehicle id="veh2" type="DEFAULT_VEHTYPE" route="r2" depart="1.2" speedFactor="1.2"/>
  <vehicle id="veh3" type="DEFAULT_VEHTYPE" route="r3" depart="1.8" speedFactor="1.2"/>
  <vehicle id="veh4" type="DEFAULT_VEHTYPE" route="r4" depart="2.4" speedFactor="1.2"/>
  <vehicle id="veh5" type="DEFAULT_VEHTYPE" route="r5" depart="3.0" speedFactor="1.2"/>
  <vehicle id="veh6" type="DEFAULT_VEHTYPE" route="r6" depart="3.6" speedFactor="1.2"/>
  <vehicle id="veh7" type="DEFAULT_VEHTYPE" route="r7" depart="4.2" speedFactor="1.2"/>
  <vehicle id="veh8" type="DEFAULT_VEHTYPE" route="r8" depart="4.8" speedFactor="1.2"/>
  <vehicle id="veh9" type="DEFAULT_VEHTYPE" route="r9" depart="5.4" speedFactor="1.2"/>
  <vehicle id="veh10" type="DEFAULT_VEHTYPE" route="r10" depart="6.0" speedFactor="1.2"/>
  <vehicle id="veh11" type="DEFAULT_VEHTYPE" route="r11" depart="6.6" speedFactor="1.2"/>
  <vehicle id="veh12" type="DEFAULT_VEHTYPE" route="r12" depart="7.2" speedFactor="1.2"/>
  <vehicle id="veh13" type="DEFAULT_VEHTYPE" route="r13" depart="7.8" speedFactor="1.2"/>
  <vehicle id="veh14" type="DEFAULT_VEHTYPE" route="r14" depart="8.4" speedFactor="1.2"/>
  <vehicle id="veh15" type="DEFAULT_VEHTYPE" route="r15" depart="9.0" speedFactor="1.2"/>
  <vehicle id="veh16" type="DEFAULT_VEHTYPE" route="r16" depart="9.6" speedFactor="1.2"/>
  <vehicle id="veh17" type="DEFAULT_VEHTYPE" route="r17" depart="10.2" speedFactor="1.2"/>
  <vehicle id="veh18" type="DEFAULT_VEHTYPE" route="r18" depart="10.8" speedFactor="1.2"/>
  <vehicle id="veh19" type="DEFAULT_VEHTYPE" route="r19" depart="11.4" speedFactor="1.2"/>
  <vehicle id="veh20" type="DEFAULT_VEHTYPE" route="r20" depart="12.0" speedFactor="1.2"/>
  <vehicle id="veh21" type="DEFAULT_VEHTYPE" route="r21" depart="12.6" speedFactor="1.2"/>
  <vehicle id="veh22" type="DEFAULT_VEHTYPE" route="r22" depart="13.2" speedFactor="1.2"/>
  <vehicle id="veh23" type="DEFAULT_VEHTYPE" route="r23" depart="13.8" speedFactor="1.2"/>
  <vehicle id="veh24" type="DEFAULT_VEHTYPE" route="r24" depart="14.4" speedFactor="1.2"/>
  <vehicle id="veh25" type="DEFAULT_VEHTYPE" route="r25" depart="15.0" speedFactor="1.2"/>
  <vehicle id="veh26" type="DEFAULT_VEHTYPE" route="r26" depart="15.6" speedFactor="1.2"/>
  <vehicle id="veh27" type="DEFAULT_VEHTYPE" route="r27" depart="16.2" speedFactor="1.2"/>
  <vehicle id="veh28" type="DEFAULT_VEHTYPE" route="r28" depart="16.8" speedFactor="1.2"/>
  <vehicle id="veh29" type="DEFAULT_VEHTYPE" route="r29" depart="17.4" speedFactor="1.2"/>
  <vehicle id="veh30" type="DEFAULT_VEHTYPE" route="r30" depart="18.0" speedFactor="1.2"/>
  <vehicle id="veh31" type="DEFAULT_VEHTYPE" route="r31" depart="18.6" speedFactor="1.2"/>
  <vehicle id="veh32" type="DEFAULT_VEHTYPE" route="r32" depart="19.2" speedFactor="1.2"/>
  <vehicle id="veh33" type="DEFAULT_VEHTYPE" route="r33" depart="19.8" speedFactor="1.2"/>
  <vehicle id="veh34" type="DEFAULT_VEHTYPE" route="r34" depart="20.4" speedFactor="1.2"/>
  <vehicle id="veh35" type="DEFAULT_VEHTYPE" route="r35" depart="21.0" speedFactor="1.2"/>
  <vehicle id="veh36" type="DEFAULT_VEHTYPE" route="r36" depart="21.6" speedFactor="1.2"/>
  <vehicle id="veh37" type="DEFAULT_VEHTYPE" route="r37" depart="22.2" speedFactor="1.2"/>
  <vehicle id="veh38" type="DEFAULT_VEHTYPE" route="r38" depart="22.8" speedFactor="1.2"/>
  <vehicle id="veh39" type="DEFAULT_VEHTYPE" route="r39" depart="23.4" speedFactor="1.2"/>
  <vehicle id="veh40" type="DEFAULT_VEHTYPE" route="r40" depart="24.0" speedFactor="1.2"/>
  <vehicle id="veh41" type="DEFAULT_VEHTYPE" route="r41" depart="24.6" speedFactor="1.2"/>
  <vehicle id="veh42" type="DEFAULT_VEHTYPE" route="r42" depart="25.2" speedFactor="1.2"/>
  <vehicle id="veh43" type="DEFAULT_VEHTYPE" route="r43" depart="25.8" speedFactor="1.2"/>
  <vehicle id="veh44" type="DEFAULT_VEHTYPE" route="r44" depart="26.4" speedFactor="1.2"/>
  <vehicle id="veh45" type="DEFAULT_VEHTYPE" route="r45" depart="27.0" speedFactor="1.2"/>
  <vehicle id="veh46" type="DEFAULT_VEHTYPE" route="r46" depart="27.6" speedFactor="1.2"/>
  <vehicle id="veh47" type="DEFAULT_VEHTYPE" route="r47" depart="28.2" speedFactor="1.2"/>
  <vehicle id="veh48" type="DEFAULT_VEHTYPE" route="r48" depart="28.8" speedFactor="1.2"/>
  <vehicle id="veh49" type="DEFAULT_VEHTYPE" route="r49" depart="29.4" speedFactor="1.2"/>
  <flow id="flow0" type="DEFAULT_VEHTYPE" route="r0" begin="60" end="86400" period="5" speedFactor="1.2"/>
  <flow id="flow1" type="DEFAULT_VEHTYPE" route="r1" begin="60" end="86400" period="5" speedFactor="1.2"/>
  <flow id="flow2" type="DEFAULT_VEHTYPE" route="r2" begin="60" end="86400" period="5" speedFactor="1.2"/>
  <flow id="flow3" type="DEFAULT_VEHTYPE" route="r3" begin="60" end="86400" period="5" speedFactor="1.2"/>
  <flow id="flow4" type="DEFAULT_VEHTYPE" route="r4" begin="60" end="86400" period="5" speedFactor="1.2"/>
  <flow id="flow5" type="DEFAULT_VEHTYPE" route="r5" begin="60" end="86400" period="5" speedFactor="1.2"/>
  <flow id="flow6" type="DEFAULT_VEHTYPE" route="r6" begin="60" end="86400" period="5" speedFactor="1.2"/>
  <flow id="flow7" type="DEFAULT_VEHTYPE" route="r7" begin="60" end="86400" period="5" speedFactor="1.2"/>
  <flow id="flow8" type="DEFAULT_VEHTYPE" route="r8" begin="60" end="86400" period="5" speedFactor="1.2"/>
  <flow id="flow9" type="DEFAULT_VEHTYPE" route="r9" begin="60" end="86400" period="5" speedFactor="1.2"/>
  <flow id="flow10" type="DEFAULT_VEHTYPE" route="r10" begin="60" end="86400" period="5" speedFactor="1.2"/>
  <flow id="flow11" type="DEFAULT_VEHTYPE" route="r11" begin="60" end="86400" period="5" speedFactor="1.2"/>
  <flow id="flow12" type="DEFAULT_VEHTYPE" route="r12" begin="60" end="86400" period="5" speedFactor="1.2"/>
  <flow id="flow13" type="DEFAULT_VEHTYPE" route="r13" begin="60" end="86400" period="5" speedFactor="1.2"/>
  <flow id="flow14" type="DEFAULT_VEHTYPE" route="r14" begin="60" end="86400" period="5" speedFactor="1.2"/>
  <flow id="flow15" type="DEFAULT_VEHTYPE" route="r15" begin="60" end="86400" period="5" speedFactor="1.2"/>
  <flow id="flow16" type="DEFAULT_VEHTYPE" route="r16" begin="60" end="86400" period="5" speedFactor="1.2"/>
  <flow id="flow17" type="DEFAULT_VEHTYPE" route="r17" begin="60" end="86400" period="5" speedFactor="1.2"/>
  <flow id="flow18" type="DEFAULT_VEHTYPE" route="r18" begin="60" end="86400" period="5" speedFactor="1.2"/>
  <flow id="flow19" type="DEFAULT_VEHTYPE" route="r19" begin="60" end="86400" period="5" speedFactor="1.2"/>
</routes>