<?xml version="1.0" encoding="UTF-8"?>

<!-- generated on 2026-06-10 14:25:24 by Eclipse SUMO netconvert Version 1.12.0
<configuration xmlns:xsi="http://www.w3.org/2001/XMLSchema-instance" xsi:noNamespaceSchemaLocation="http://sumo.dlr.de/xsd/netconvertConfiguration.xsd">

    <input>
        <osm-files value="/tmp/sumo_20260610_142517_ng1wbrn_/zone.osm"/>
    </input>

    <output>
        <output-file value="/tmp/sumo_20260610_142517_ng1wbrn_/generated.net.xml"/>
    </output>

    <projection>
        <proj.utm value="true"/>
    </projection>

    <processing>
        <geometry.remove value="true"/>
        <roundabouts.guess value="true"/>
    </processing>

    <tls_building>
        <tls.guess-signals value="true"/>
    </tls_building>

    <ramp_guessing>
        <ramps.guess value="true"/>
    </ramp_guessing>

    <junctions>
        <junctions.join value="true"/>
    </junctions>

    <report>
        <no-warnings value="true"/>
        <aggregate-warnings value="5"/>
    </report>

</configuration>
-->

<net version="1.9" junctionCornerDetail="5" limitTurnSpeed="5.50" xmlns:xsi="http://www.w3.org/2001/XMLSchema-instance" xsi:noNamespaceSchemaLocation="http://sumo.dlr.de/xsd/net_file.xsd">

    <location netOffset="-627782.31,-3714222.29" convBoundary="0.00,0.00,2695.05,5221.89" origBoundary="-7.622655,33.559694,-7.594376,33.607105" projParameter="+proj=utm +zone=29 +ellps=WGS84 +datum=WGS84 +units=m +no_defs"/>

    <type id="highway.bridleway" priority="1" numLanes="1" speed="2.78" allow="pedestrian" oneway="1" width="2.00"/>
    <type id="highway.bus_guideway" priority="1" numLanes="1" speed="27.78" allow="bus" oneway="1"/>
    <type id="highway.cycleway" priority="1" numLanes="1" speed="8.33" allow="bicycle" oneway="0" width="1.00"/>
    <type id="highway.footway" priority="1" numLanes="1" speed="2.78" allow="pedestrian" oneway="1" width="2.00"/>
    <type id="highway.ford" priority="1" numLanes="1" speed="2.78" allow="army" oneway="0"/>
    <type id="highway.living_street" priority="2" numLanes="1" speed="2.78" disallow="tram rail_urban rail rail_electric rail_fast ship" oneway="0"/>
    <type id="highway.motorway" priority="14" numLanes="2" speed="39.44" allow="private emergency authority army vip passenger hov taxi bus coach delivery truck trailer motorcycle evehicle custom1 custom2" oneway="1"/>
    <type id="highway.motorway_link" priority="9" numLanes="1" speed="22.22" allow="private emergency authority army vip passenger hov taxi bus coach delivery truck trailer motorcycle evehicle custom1 custom2" oneway="1"/>
    <type id="highway.path" priority="1" numLanes="1" speed="2.78" allow="pedestrian bicycle" oneway="0" width="2.00"/>
    <type id="highway.pedestrian" priority="1" numLanes="1" speed="2.78" allow="pedestrian" oneway="1" width="2.00"/>
    <type id="highway.primary" priority="12" numLanes="2" speed="27.78" disallow="tram rail_urban rail rail_electric rail_fast ship" oneway="0"/>
    <type id="highway.primary_link" priority="7" numLanes="1" speed="22.22" disallow="tram rail_urban rail rail_electric rail_fast ship" oneway="0"/>
    <type id="highway.raceway" priority="15" numLanes="2" speed="83.33" allow="vip" oneway="0"/>
    <type id="highway.residential" priority="3" numLanes="1" speed="13.89" disallow="tram rail_urban rail rail_electric rail_fast ship" oneway="0"/>
    <type id="highway.secondary" priority="11" numLanes="1" speed="27.78" disallow="tram rail_urban rail rail_electric rail_fast ship" oneway="0"/>
    <type id="highway.secondary_link" priority="6" numLanes="1" speed="22.22" disallow="tram rail_urban rail rail_electric rail_fast ship" oneway="0"/>
    <type id="highway.service" priority="1" numLanes="1" speed="5.56" allow="pedestrian delivery bicycle" oneway="0"/>
    <type id="highway.stairs" priority="1" numLanes="1" speed="1.39" allow="pedestrian" oneway="1" width="2.00"/>
    <type id="highway.step" priority="1" numLanes="1" speed="1.39" allow="pedestrian" oneway="1" width="2.00"/>
    <type id="highway.steps" priority="1" numLanes="1" speed="1.39" allow="pedestrian" oneway="1" width="2.00"/>
    <type id="highway.tertiary" priority="10" numLanes="1" speed="22.22" disallow="tram rail_urban rail rail_electric rail_fast ship" oneway="0"/>
    <type id="highway.tertiary_link" priority="5" numLanes="1" speed="22.22" disallow="tram rail_urban rail rail_electric rail_fast ship" oneway="0"/>
    <type id="highway.track" priority="1" numLanes="1" speed="5.56" allow="pedestrian motorcycle moped bicycle" oneway="0"/>
    <type id="highway.trunk" priority="13" numLanes="2" speed="27.78" disallow="pedestrian bicycle tram rail_urban rail rail_electric rail_fast ship" oneway="0"/>
    <type id="highway.trunk_link" priority="8" numLanes="1" speed="22.22" disallow="pedestrian bicycle tram rail_urban rail rail_electric rail_fast ship" oneway="0"/>
    <type id="highway.unclassified" priority="4" numLanes="1" speed="13.89" disallow="tram rail_urban rail rail_electric rail_fast ship" oneway="0"/>
    <type id="highway.unsurfaced" priority="1" numLanes="1" speed="8.33" disallow="tram rail_urban rail rail_electric rail_fast ship" oneway="0"/>
    <type id="railway.highspeed" priority="21" numLanes="1" speed="69.44" allow="rail_fast" oneway="1"/>
    <type id="railway.light_rail" priority="19" numLanes="1" speed="27.78" allow="rail_urban" oneway="1"/>
    <type id="railway.preserved" priority="16" numLanes="1" speed="27.78" allow="rail" oneway="1"/>
    <type id="railway.rail" priority="20" numLanes="1" speed="44.44" allow="rail" oneway="1"/>
    <type id="railway.subway" priority="18" numLanes="1" speed="27.78" allow="rail_urban" oneway="1"/>
    <type id="railway.tram" priority="17" numLanes="1" speed="13.89" allow="tram" oneway="1"/>

    <edge id=":10127117880_0" function="internal">
        <lane id=":10127117880_0_0" index="0" allow="tram" speed="13.89" length="2.82" shape="1137.41,4225.19 1140.23,4225.14"/>
    </edge>
    <edge id=":10127117880_1" function="internal">
        <lane id=":10127117880_1_0" index="0" allow="tram" speed="13.89" length="2.79" shape="1137.46,4225.46 1138.27,4225.32 1138.83,4225.23 1139.40,4225.18 1140.23,4225.14"/>
    </edge>
    <edge id=":10992011541_0" function="internal">
        <lane id=":10992011541_0_0" index="0" disallow="tram rail_urban rail rail_electric rail_fast ship" speed="6.61" length="8.68" shape="1251.61,4074.52 1253.92,4075.23 1255.93,4075.11 1257.65,4074.15 1259.07,4072.36"/>
    </edge>
    <edge id=":10992011541_1" function="internal">
        <lane id=":10992011541_1_0" index="0" disallow="tram rail_urban rail rail_electric rail_fast ship" speed="22.22" length="10.20" shape="1253.98,4081.20 1259.07,4072.36"/>
    </edge>
    <edge id=":1131113875#0-AddedOffRampNode_0" function="internal">
        <lane id=":1131113875#0-AddedOffRampNode_0_0" index="0" disallow="tram rail_urban rail rail_electric rail_fast ship" speed="22.22" length="8.27" shape="1295.61,3946.74 1295.84,3949.24 1296.77,3950.89 1297.70,3952.53 1297.93,3955.04"/>
        <lane id=":1131113875#0-AddedOffRampNode_0_1" index="1" disallow="tram rail_urban rail rail_electric rail_fast ship" speed="22.22" length="8.27" shape="1295.61,3946.74 1294.75,3954.69"/>
        <lane id=":1131113875#0-AddedOffRampNode_0_2" index="2" disallow="tram rail_urban rail rail_electric rail_fast ship" speed="22.22" length="8.27" shape="1292.43,3946.40 1291.57,3954.35"/>
    </edge>
    <edge id=":11477725240_0" function="internal">
        <lane id=":11477725240_0_0" index="0" allow="pedestrian delivery bicycle" speed="3.65" length="4.67" shape="1292.30,4355.52 1291.69,4354.22 1291.76,4353.32 1292.52,4352.85 1293.96,4352.78"/>
    </edge>
    <edge id=":11477725250_0" function="internal">
        <lane id=":11477725250_0_0" index="0" allow="pedestrian delivery bicycle" speed="3.65" length="4.67" shape="1092.41,4194.56 1092.05,4195.96 1091.43,4196.61 1090.54,4196.49 1089.39,4195.63"/>
    </edge>
    <edge id=":11490997606_0" function="internal">
        <lane id=":11490997606_0_0" index="0" allow="pedestrian delivery bicycle" speed="4.94" length="5.13" shape="1010.46,4466.56 1009.15,4465.99 1008.02,4466.00 1007.05,4466.60 1006.25,4467.78"/>
    </edge>
    <edge id=":11490997606_1" function="internal">
        <lane id=":11490997606_1_0" index="0" allow="pedestrian delivery bicycle" speed="5.56" length="10.22" shape="1010.46,4466.56 1008.21,4464.73 1006.96,4462.68 1006.72,4460.40 1007.49,4457.89"/>
    </edge>
    <edge id=":11490997606_2" function="internal">
        <lane id=":11490997606_2_0" index="0" allow="pedestrian delivery bicycle" speed="3.65" length="4.67" shape="1010.46,4466.56 1009.86,4465.25 1009.94,4464.35 1010.71,4463.89 1012.15,4463.84"/>
    </edge>
    <edge id=":11490997606_3" function="internal">
        <lane id=":11490997606_3_0" index="0" allow="pedestrian delivery bicycle" speed="5.41" length="5.44" shape="1010.37,4459.29 1010.00,4460.57 1010.17,4461.75 1010.89,4462.84 1012.15,4463.84"/>
    </edge>
    <edge id=":11490997606_4" function="internal">
        <lane id=":11490997606_4_0" index="0" allow="pedestrian delivery bicycle" speed="5.56" length="9.43" shape="1010.37,4459.29 1006.25,4467.78"/>
    </edge>
    <edge id=":11490997606_5" function="internal">
        <lane id=":11490997606_5_0" index="0" allow="pedestrian delivery bicycle" speed="3.65" length="4.67" shape="1010.37,4459.29 1009.12,4460.02 1008.23,4460.03 1007.68,4459.32 1007.49,4457.89"/>
    </edge>
    <edge id=":11490997606_6" function="internal">
        <lane id=":11490997606_6_0" index="0" allow="pedestrian delivery bicycle" speed="5.56" length="9.43" shape="1003.37,4466.38 1007.49,4457.89"/>
    </edge>
    <edge id=":11490997606_7" function="internal">
        <lane id=":11490997606_7_0" index="0" allow="pedestrian delivery bicycle" speed="5.56" length="10.69" shape="1003.37,4466.38 1005.03,4463.92 1007.05,4462.67 1009.42,4462.65 1012.15,4463.84"/>
    </edge>
    <edge id=":11490997606_8" function="internal">
        <lane id=":11490997606_8_0" index="0" allow="pedestrian delivery bicycle" speed="3.65" length="4.67" shape="1003.37,4466.38 1004.61,4465.65 1005.51,4465.64 1006.05,4466.35 1006.25,4467.78"/>
    </edge>
    <edge id=":11490997611_0" function="internal">
        <lane id=":11490997611_0_0" index="0" allow="pedestrian delivery bicycle" speed="4.11" length="1.42" shape="1017.96,4449.51 1017.63,4449.34 1017.30,4449.25 1016.95,4449.25 1016.60,4449.32"/>
    </edge>
    <edge id=":11490997611_1" function="internal">
        <lane id=":11490997611_1_0" index="0" allow="pedestrian delivery bicycle" speed="5.56" length="4.25" shape="1015.64,4446.27 1016.71,4446.05 1017.74,4446.07 1018.74,4446.33 1019.71,4446.83"/>
    </edge>
    <edge id=":1216327800_0" function="internal">
        <lane id=":1216327800_0_0" index="0" disallow="tram rail_urban rail rail_electric rail_fast ship" speed="3.65" length="4.67" shape="1445.24,4294.52 1446.42,4295.36 1446.80,4296.17 1446.37,4296.95 1445.15,4297.72"/>
    </edge>
    <edge id=":1216327960_0" function="internal">
        <lane id=":1216327960_0_0" index="0" disallow="tram rail_urban rail rail_electric rail_fast ship" speed="2.78" length="15.10" shape="646.48,4439.89 643.01,4441.35 639.48,4442.70 635.89,4443.92 632.28,4445.00"/>
    </edge>
    <edge id=":1216327960_1" function="internal">
        <lane id=":1216327960_1_0" index="0" disallow="tram rail_urban rail rail_electric rail_fast ship" speed="2.78" length="14.69" shape="646.48,4439.89 642.53,4440.99 639.33,4440.49 636.86,4438.38 635.14,4434.66"/>
    </edge>
    <edge id=":1216327960_2" function="internal">
        <lane id=":1216327960_2_0" index="0" disallow="tram rail_urban rail rail_electric rail_fast ship" speed="2.78" length="4.67" shape="646.48,4439.89 645.06,4439.64 644.37,4439.07 644.41,4438.18 645.19,4436.96"/>
    </edge>
    <edge id=":1216327960_3" function="internal">
        <lane id=":1216327960_3_0" index="0" disallow="tram rail_urban rail rail_electric rail_fast ship" speed="2.78" length="9.05" shape="638.20,4433.74 639.26,4436.03 640.78,4437.33 642.76,4437.64 645.19,4436.96"/>
    </edge>
    <edge id=":1216327960_4" function="internal">
        <lane id=":1216327960_4_0" index="0" disallow="tram rail_urban rail rail_electric rail_fast ship" speed="2.78" length="14.56" shape="638.20,4433.74 638.83,4437.77 638.05,4440.99 635.87,4443.40 632.28,4445.00"/>
    </edge>
    <edge id=":1216327960_5" function="internal">
        <lane id=":1216327960_5_0" index="0" disallow="tram rail_urban rail rail_electric rail_fast ship" speed="2.78" length="4.67" shape="638.20,4433.74 637.78,4435.12 637.13,4435.73 636.25,4435.58 635.14,4434.66"/>
    </edge>
    <edge id=":1216327960_6" function="internal">
        <lane id=":1216327960_6_0" index="0" disallow="tram rail_urban rail rail_electric rail_fast ship" speed="2.78" length="9.33" shape="631.43,4441.91 633.70,4440.90 635.07,4439.35 635.55,4437.27 635.14,4434.66"/>
    </edge>
    <edge id=":1216327960_7" function="internal">
        <lane id=":1216327960_7_0" index="0" disallow="tram rail_urban rail rail_electric rail_fast ship" speed="2.78" length="14.64" shape="631.43,4441.91 634.97,4440.86 638.40,4439.69 641.79,4438.40 645.19,4436.96"/>
    </edge>
    <edge id=":1216327960_8" function="internal">
        <lane id=":1216327960_8_0" index="0" disallow="tram rail_urban rail rail_electric rail_fast ship" speed="2.78" length="4.67" shape="631.43,4441.91 632.80,4442.36 633.40,4443.03 633.23,4443.91 632.28,4445.00"/>
    </edge>
    <edge id=":1216328025_0" function="internal">
        <lane id=":1216328025_0_0" index="0" allow="rail rail_electric rail_fast" speed="44.44" length="43.04" shape="1442.75,4238.69 1401.24,4250.06"/>
    </edge>
    <edge id=":1216328025_1" function="internal">
        <lane id=":1216328025_1_0" index="0" allow="rail rail_electric rail_fast" speed="44.44" length="43.04" shape="1442.75,4238.69 1400.50,4246.87"/>
    </edge>
    <edge id=":1216328094_0" function="internal">
        <lane id=":1216328094_0_0" index="0" disallow="tram rail_urban rail rail_electric rail_fast ship" speed="6.53" length="8.32" shape="679.25,4349.63 677.54,4348.16 675.74,4347.53 673.84,4347.72 671.83,4348.74"/>
    </edge>
    <edge id=":1216328094_1" function="internal">
        <lane id=":1216328094_1_0" index="0" disallow="tram rail_urban rail rail_electric rail_fast ship" speed="8.51" length="12.84" shape="679.25,4349.63 677.28,4346.74 676.44,4343.81 676.72,4340.84 678.13,4337.83"/>
    </edge>
    <edge id=":1216328094_2" function="internal">
        <lane id=":1216328094_2_0" index="0" disallow="tram rail_urban rail rail_electric rail_fast ship" speed="3.65" length="4.67" shape="679.25,4349.63 679.05,4348.20 679.39,4347.37 680.25,4347.14 681.65,4347.51"/>
    </edge>
    <edge id=":1216328094_3" function="internal">
        <lane id=":1216328094_3_0" index="0" disallow="tram rail_urban rail rail_electric rail_fast ship" speed="7.08" length="8.64" shape="680.81,4339.58 679.88,4341.58 679.71,4343.57 680.30,4345.55 681.65,4347.51"/>
    </edge>
    <edge id=":1216328094_4" function="internal">
        <lane id=":1216328094_4_0" index="0" disallow="tram rail_urban rail rail_electric rail_fast ship" speed="13.89" length="12.92" shape="680.81,4339.58 678.84,4342.38 676.84,4344.66 674.58,4346.69 671.83,4348.74"/>
    </edge>
    <edge id=":1216328094_5" function="internal">
        <lane id=":1216328094_5_0" index="0" disallow="tram rail_urban rail rail_electric rail_fast ship" speed="3.65" length="1.44" shape="680.81,4339.58 679.49,4340.15"/>
    </edge>
    <edge id=":1216328094_9" function="internal">
        <lane id=":1216328094_9_0" index="0" disallow="tram rail_urban rail rail_electric rail_fast ship" speed="3.65" length="3.23" shape="679.49,4340.15 678.60,4340.05 678.15,4339.28 678.13,4337.83"/>
    </edge>
    <edge id=":1216328094_6" function="internal">
        <lane id=":1216328094_6_0" index="0" disallow="tram rail_urban rail rail_electric rail_fast ship" speed="13.89" length="11.71" shape="670.00,4346.12 672.62,4344.20 674.58,4342.47 676.29,4340.49 678.13,4337.83"/>
    </edge>
    <edge id=":1216328094_7" function="internal">
        <lane id=":1216328094_7_0" index="0" disallow="tram rail_urban rail rail_electric rail_fast ship" speed="8.03" length="3.53" shape="670.00,4346.12 673.15,4344.51"/>
    </edge>
    <edge id=":1216328094_8" function="internal">
        <lane id=":1216328094_8_0" index="0" disallow="tram rail_urban rail rail_electric rail_fast ship" speed="3.65" length="1.44" shape="670.00,4346.12 671.44,4346.08"/>
    </edge>
    <edge id=":1216328094_10" function="internal">
        <lane id=":1216328094_10_0" index="0" disallow="tram rail_urban rail rail_electric rail_fast ship" speed="8.03" length="9.54" shape="673.15,4344.51 676.14,4344.21 678.97,4345.21 681.65,4347.51"/>
    </edge>
    <edge id=":1216328094_11" function="internal">
        <lane id=":1216328094_11_0" index="0" disallow="tram rail_urban rail rail_electric rail_fast ship" speed="3.65" length="3.23" shape="671.44,4346.08 672.23,4346.51 672.36,4347.40 671.83,4348.74"/>
    </edge>
    <edge id=":1216328303_0" function="internal">
        <lane id=":1216328303_0_0" index="0" disallow="tram rail_urban rail rail_electric rail_fast ship" speed="13.89" length="46.48" shape="1340.29,4303.19 1330.26,4303.76 1317.19,4304.88 1304.13,4306.16 1294.14,4307.22"/>
        <lane id=":1216328303_0_1" index="1" disallow="tram rail_urban rail rail_electric rail_fast ship" speed="13.89" length="46.48" shape="1340.21,4299.99 1330.14,4300.57 1316.97,4301.69 1303.82,4302.97 1293.78,4304.04"/>
    </edge>
    <edge id=":1216328303_2" function="internal">
        <lane id=":1216328303_2_0" index="0" disallow="tram rail_urban rail rail_electric rail_fast ship" speed="13.89" length="47.04" shape="1293.07,4297.68 1303.20,4296.61 1316.55,4295.31 1329.90,4294.17 1340.07,4293.60"/>
        <lane id=":1216328303_2_1" index="1" disallow="tram rail_urban rail rail_electric rail_fast ship" speed="13.89" length="47.04" shape="1293.42,4300.86 1303.51,4299.79 1316.76,4298.50 1330.02,4297.37 1340.14,4296.79"/>
    </edge>
    <edge id=":1216328303_4" function="internal">
        <lane id=":1216328303_4_0" index="0" allow="rail" speed="44.44" length="48.54" shape="1295.20,4311.23 1303.07,4306.97 1316.93,4300.48 1330.81,4294.02 1338.75,4289.85"/>
    </edge>
    <edge id=":1216328348_0" function="internal">
        <lane id=":1216328348_0_0" index="0" allow="pedestrian delivery bicycle" speed="3.65" length="4.67" shape="525.58,4443.97 524.16,4444.25 523.32,4443.96 523.04,4443.11 523.33,4441.69"/>
    </edge>
    <edge id=":1216328506_0" function="internal">
        <lane id=":1216328506_0_0" index="0" disallow="tram rail_urban rail rail_electric rail_fast ship" speed="13.89" length="10.14" shape="979.55,4488.51 979.09,4491.37 979.27,4493.39 979.53,4495.43 979.31,4498.34"/>
        <lane id=":1216328506_0_1" index="1" disallow="tram rail_urban rail rail_electric rail_fast ship" speed="13.89" length="10.14" shape="976.46,4487.68 975.97,4490.67 976.12,4492.80 976.37,4494.93 976.12,4497.99"/>
    </edge>
    <edge id=":1216328506_2" function="internal">
        <lane id=":1216328506_2_0" index="0" disallow="tram rail_urban rail rail_electric rail_fast ship" speed="3.65" length="1.34" shape="976.46,4487.68 975.45,4488.56"/>
    </edge>
    <edge id=":1216328506_8" function="internal">
        <lane id=":1216328506_8_0" index="0" disallow="tram rail_urban rail rail_electric rail_fast ship" speed="3.65" length="3.33" shape="975.45,4488.56 975.38,4488.63 974.50,4488.81 973.83,4488.21 973.37,4486.84"/>
    </edge>
    <edge id=":1216328506_3" function="internal">
        <lane id=":1216328506_3_0" index="0" disallow="tram rail_urban rail rail_electric rail_fast ship" speed="13.89" length="10.86" shape="965.05,4495.37 966.99,4492.99 968.32,4491.17 969.32,4489.11 970.28,4486.01"/>
    </edge>
    <edge id=":1216328506_4" function="internal">
        <lane id=":1216328506_4_0" index="0" disallow="tram rail_urban rail rail_electric rail_fast ship" speed="6.34" length="15.48" shape="965.05,4495.37 968.61,4492.83 972.49,4492.50 975.41,4494.26 976.12,4497.99"/>
    </edge>
    <edge id=":1216328506_5" function="internal">
        <lane id=":1216328506_5_0" index="0" disallow="tram rail_urban rail rail_electric rail_fast ship" speed="13.89" length="11.10" shape="969.75,4497.27 970.04,4493.94 969.83,4491.60 969.72,4489.28 970.28,4486.01"/>
        <lane id=":1216328506_5_1" index="1" disallow="tram rail_urban rail rail_electric rail_fast ship" speed="13.89" length="11.10" shape="972.94,4497.63 973.20,4494.44 972.98,4492.20 972.84,4489.98 973.37,4486.84"/>
    </edge>
    <edge id=":1216328506_7" function="internal">
        <lane id=":1216328506_7_0" index="0" disallow="tram rail_urban rail rail_electric rail_fast ship" speed="3.65" length="1.45" shape="972.94,4497.63 973.87,4496.53"/>
    </edge>
    <edge id=":1216328506_9" function="internal">
        <lane id=":1216328506_9_0" index="0" disallow="tram rail_urban rail rail_electric rail_fast ship" speed="3.65" length="3.24" shape="973.87,4496.53 974.71,4496.22 975.46,4496.70 976.12,4497.99"/>
    </edge>
    <edge id=":1216328929_0" function="internal">
        <lane id=":1216328929_0_0" index="0" disallow="tram rail_urban rail rail_electric rail_fast ship" speed="6.76" length="9.44" shape="725.15,4341.16 727.17,4342.91 729.24,4343.66 731.33,4343.42 733.46,4342.18"/>
    </edge>
    <edge id=":1216328929_1" function="internal">
        <lane id=":1216328929_1_0" index="0" disallow="tram rail_urban rail rail_electric rail_fast ship" speed="3.65" length="1.44" shape="725.15,4341.16 725.35,4342.59"/>
    </edge>
    <edge id=":1216328929_4" function="internal">
        <lane id=":1216328929_4_0" index="0" disallow="tram rail_urban rail rail_electric rail_fast ship" speed="3.65" length="3.23" shape="725.35,4342.59 725.02,4343.42 724.16,4343.66 722.76,4343.30"/>
    </edge>
    <edge id=":1216328929_2" function="internal">
        <lane id=":1216328929_2_0" index="0" disallow="tram rail_urban rail rail_electric rail_fast ship" speed="6.29" length="9.04" shape="721.93,4350.98 723.74,4349.24 724.48,4347.37 724.16,4345.39 722.76,4343.30"/>
    </edge>
    <edge id=":1216328929_3" function="internal">
        <lane id=":1216328929_3_0" index="0" disallow="tram rail_urban rail rail_electric rail_fast ship" speed="13.89" length="14.50" shape="721.93,4350.98 733.46,4342.18"/>
    </edge>
    <edge id=":1216329082_0" function="internal">
        <lane id=":1216329082_0_0" index="0" disallow="tram rail_urban rail rail_electric rail_fast ship" speed="13.89" length="9.19" shape="709.24,4328.19 702.96,4321.48"/>
    </edge>
    <edge id=":1216329082_1" function="internal">
        <lane id=":1216329082_1_0" index="0" allow="pedestrian delivery bicycle" speed="6.81" length="3.19" shape="709.24,4328.19 707.64,4325.77 707.59,4325.48"/>
    </edge>
    <edge id=":1216329082_7" function="internal">
        <lane id=":1216329082_7_0" index="0" allow="pedestrian delivery bicycle" speed="6.81" length="7.31" shape="707.59,4325.48 707.23,4323.46 708.04,4321.25 710.05,4319.16"/>
    </edge>
    <edge id=":1216329082_2" function="internal">
        <lane id=":1216329082_2_0" index="0" allow="pedestrian delivery bicycle" speed="4.97" length="5.08" shape="712.02,4321.68 711.05,4322.70 710.66,4323.76 710.85,4324.88 711.63,4326.05"/>
    </edge>
    <edge id=":1216329082_3" function="internal">
        <lane id=":1216329082_3_0" index="0" allow="pedestrian delivery bicycle" speed="7.14" length="10.08" shape="712.02,4321.68 709.58,4323.13 707.25,4323.58 705.05,4323.03 702.96,4321.48"/>
    </edge>
    <edge id=":1216329082_4" function="internal">
        <lane id=":1216329082_4_0" index="0" allow="pedestrian delivery bicycle" speed="3.65" length="4.67" shape="712.02,4321.68 710.58,4321.79 709.78,4321.41 709.60,4320.53 710.05,4319.16"/>
    </edge>
    <edge id=":1216329082_5" function="internal">
        <lane id=":1216329082_5_0" index="0" allow="pedestrian delivery bicycle" speed="5.39" length="5.35" shape="705.24,4319.23 706.31,4320.01 707.47,4320.25 708.72,4319.97 710.05,4319.16"/>
    </edge>
    <edge id=":1216329082_6" function="internal">
        <lane id=":1216329082_6_0" index="0" disallow="tram rail_urban rail rail_electric rail_fast ship" speed="13.89" length="9.35" shape="705.24,4319.23 711.63,4326.05"/>
    </edge>
    <edge id=":1216329100_0" function="internal">
        <lane id=":1216329100_0_0" index="0" disallow="tram rail_urban rail rail_electric rail_fast ship" speed="7.27" length="10.66" shape="694.30,4361.87 696.71,4364.09 699.06,4365.23 701.36,4365.27 703.60,4364.22"/>
    </edge>
    <edge id=":1216329100_1" function="internal">
        <lane id=":1216329100_1_0" index="0" disallow="tram rail_urban rail rail_electric rail_fast ship" speed="3.65" length="4.67" shape="694.30,4361.87 694.49,4363.30 694.16,4364.13 693.29,4364.36 691.90,4363.99"/>
    </edge>
    <edge id=":1216329100_2" function="internal">
        <lane id=":1216329100_2_0" index="0" disallow="tram rail_urban rail rail_electric rail_fast ship" speed="13.89" length="14.45" shape="691.36,4371.87 694.30,4369.71 697.38,4367.92 700.51,4366.19 703.60,4364.22"/>
    </edge>
    <edge id=":1216329100_3" function="internal">
        <lane id=":1216329100_3_0" index="0" disallow="tram rail_urban rail rail_electric rail_fast ship" speed="3.65" length="4.67" shape="691.36,4371.87 692.80,4371.69 693.62,4372.04 693.84,4372.90 693.46,4374.29"/>
    </edge>
    <edge id=":12451110832_0" function="internal">
        <lane id=":12451110832_0_0" index="0" allow="pedestrian delivery bicycle" speed="5.56" length="6.87" shape="1045.73,4227.66 1042.87,4221.41"/>
    </edge>
    <edge id=":12451110832_1" function="internal">
        <lane id=":12451110832_1_0" index="0" allow="pedestrian delivery bicycle" speed="5.56" length="6.74" shape="1045.80,4220.15 1048.62,4226.27"/>
    </edge>
    <edge id=":12451110832_2" function="internal">
        <lane id=":12451110832_2_0" index="0" allow="tram" speed="13.89" length="9.94" shape="1041.25,4225.63 1043.86,4224.28 1045.73,4223.49 1047.68,4222.96 1050.57,4222.37"/>
    </edge>
    <edge id=":12451110836_0" function="internal">
        <lane id=":12451110836_0_0" index="0" allow="tram" speed="13.89" length="2.09" shape="1093.02,4228.95 1090.94,4229.04"/>
    </edge>
    <edge id=":12451110836_1" function="internal">
        <lane id=":12451110836_1_0" index="0" allow="tram" speed="2.75" length="1.38" shape="1090.98,4229.24 1091.47,4229.12 1091.63,4229.04 1091.45,4229.02 1090.94,4229.04"/>
    </edge>
    <edge id=":12451110841_0" function="internal">
        <lane id=":12451110841_0_0" index="0" allow="tram" speed="13.89" length="18.14" shape="1071.66,4222.42 1075.85,4223.08 1080.61,4223.99 1085.37,4224.79 1089.58,4225.14"/>
    </edge>
    <edge id=":12451110841_1" function="internal">
        <lane id=":12451110841_1_0" index="0" allow="tram" speed="13.89" length="18.37" shape="1071.23,4225.82 1089.58,4225.14"/>
    </edge>
    <edge id=":1246675444_0" function="internal">
        <lane id=":1246675444_0_0" index="0" allow="pedestrian delivery bicycle" speed="4.17" length="5.34" shape="622.15,4391.29 621.51,4389.90 620.62,4389.18 619.48,4389.12 618.08,4389.72"/>
    </edge>
    <edge id=":1246675444_1" function="internal">
        <lane id=":1246675444_1_0" index="0" disallow="tram rail_urban rail rail_electric rail_fast ship" speed="8.34" length="11.12" shape="622.15,4391.29 621.59,4388.24 621.82,4385.54 622.85,4383.17 624.68,4381.14"/>
    </edge>
    <edge id=":1246675444_2" function="internal">
        <lane id=":1246675444_2_0" index="0" allow="pedestrian delivery bicycle" speed="9.72" length="10.62" shape="626.73,4383.60 624.36,4385.54 622.57,4386.89 620.69,4388.12 618.08,4389.72"/>
    </edge>
    <edge id=":1246675444_3" function="internal">
        <lane id=":1246675444_3_0" index="0" disallow="tram rail_urban rail rail_electric rail_fast ship" speed="3.65" length="4.67" shape="626.73,4383.60 625.30,4383.76 624.48,4383.40 624.27,4382.53 624.68,4381.14"/>
    </edge>
    <edge id=":1246675444_4" function="internal">
        <lane id=":1246675444_4_0" index="0" allow="pedestrian delivery bicycle" speed="9.72" length="10.14" shape="616.41,4386.99 618.96,4385.43 620.71,4384.30 622.37,4383.05 624.68,4381.14"/>
    </edge>
    <edge id=":1246675444_5" function="internal">
        <lane id=":1246675444_5_0" index="0" allow="pedestrian delivery bicycle" speed="4.17" length="11.54" shape="616.41,4386.99 619.43,4385.69 621.91,4385.82 623.84,4387.38 625.22,4390.37"/>
    </edge>
    <edge id=":1246675444_6" function="internal">
        <lane id=":1246675444_6_0" index="0" allow="pedestrian delivery bicycle" speed="3.65" length="4.67" shape="616.41,4386.99 617.85,4387.05 618.61,4387.52 618.68,4388.42 618.08,4389.72"/>
    </edge>
    <edge id=":12479388709_0" function="internal">
        <lane id=":12479388709_0_0" index="0" allow="tram" speed="13.89" length="3.43" shape="1127.18,4227.64 1126.17,4227.55 1125.48,4227.45 1124.79,4227.33 1123.79,4227.13"/>
    </edge>
    <edge id=":12479388709_1" function="internal">
        <lane id=":12479388709_1_0" index="0" allow="tram" speed="13.89" length="3.30" shape="1123.86,4227.81 1127.13,4227.33"/>
    </edge>
    <edge id=":12479388710_0" function="internal">
        <lane id=":12479388710_0_0" index="0" allow="tram" speed="13.89" length="3.01" shape="1112.61,4225.22 1115.62,4225.22"/>
    </edge>
    <edge id=":12479388711_0" function="internal">
        <lane id=":12479388711_0_0" index="0" allow="tram" speed="13.89" length="2.98" shape="1141.10,4228.68 1138.12,4228.74"/>
    </edge>
    <edge id=":12479388711_1" function="internal">